/*---------------------------------------------------------------------------*\
| =========                 |                                                 |
| \\      /  F ield         | foam-extend: Open Source CFD                    |
|  \\    /   O peration     | Version:     3.2                                |
|   \\  /    A nd           | Web:         http://www.foam-extend.org         |
|    \\/     M anipulation  | For copyright notice see file Copyright         |
\*---------------------------------------------------------------------------*/
Build    : 3.2-d71febecea21
Exec     : blockMesh
Date     : Mar 01 2016
Time     : 11:06:58
Host     : ilrocstar5
PID      : 11687
CtrlDict : "/home/woohyunkim/ElmerFoamFSI/testing/share/Testing/test_data/SimpleStatic/solid/system/controlDict"
Case     : /home/woohyunkim/ElmerFoamFSI/testing/share/Testing/test_data/SimpleStatic/solid
nProcs   : 1
SigFpe   : Enabling floating point exception trapping (FOAM_SIGFPE).

// * * * * * * * * * * * * * * * * * * * * * * * * * * * * * * * * * * * * * //
Create time


Creating block mesh from
    "/home/woohyunkim/ElmerFoamFSI/testing/share/Testing/test_data/SimpleStatic/solid/constant/polyMesh/blockMeshDict"

Creating curved edges
Creating topology blocks
Creating topology patches

Reading patches section

Creating block mesh topology

Reading physicalType from existing boundary file

Default patch type set to empty

Check topology

	Basic statistics
		Number of internal faces : 0
		Number of boundary faces : 6
		Number of defined boundary faces : 6
		Number of undefined boundary faces : 0
	Checking patch -> block consistency

Creating block offsets
Creating merge list .

Creating polyMesh from blockMesh
Creating patches
Creating cells
Creating points with scale 1
    Block 0 cell size :
        i : 0.05 .. 0.05
        j : 0.02 .. 0.02
        k : 0.1 .. 0.1


Writing polyMesh
----------------
Mesh Information
----------------
  boundingBox: (0 0 0) (0.1 0.1 1)
  nPoints: 252
  nCells: 100
  nFaces: 425
  nInternalFaces: 175
----------------
Patches
----------------
  patch 0 (start: 175 size: 5) name: left
  patch 1 (start: 180 size: 5) name: right
  patch 2 (start: 185 size: 20) name: bottom
  patch 3 (start: 205 size: 20) name: fsiFace
  patch 4 (start: 225 size: 100) name: front
  patch 5 (start: 325 size: 100) name: back

End

