/*---------------------------------------------------------------------------*\
| =========                 |                                                 |
| \\      /  F ield         | foam-extend: Open Source CFD                    |
|  \\    /   O peration     | Version:     3.2                                |
|   \\  /    A nd           | Web:         http://www.foam-extend.org         |
|    \\/     M anipulation  | For copyright notice see file Copyright         |
\*---------------------------------------------------------------------------*/
Build    : 3.2-d71febecea21
Exec     : setSet -batch batch.setSet
Date     : Mar 01 2016
Time     : 11:06:58
Host     : ilrocstar5
PID      : 11689
CtrlDict : "/home/woohyunkim/ElmerFoamFSI/testing/share/Testing/test_data/SimpleStatic/solid/system/controlDict"
Case     : /home/woohyunkim/ElmerFoamFSI/testing/share/Testing/test_data/SimpleStatic/solid
nProcs   : 1
SigFpe   : Enabling floating point exception trapping (FOAM_SIGFPE).

// * * * * * * * * * * * * * * * * * * * * * * * * * * * * * * * * * * * * * //
Create time

Create polyMesh for time = 0

Time:0  cells:100  faces:425  points:252  patches:6  bb:(0 0 0) (0.1 0.1 1)

Reading commands from file "batch.setSet"
Please type 'help', 'quit' or a set command after prompt.
Doing:"faceSet plateZone new patchToFace fsiFace"
    Set:plateZone  Size:0  Action:new
    Adding all faces of patch fsiFace ...
    Found matching patch fsiFace with 20 faces.
    Writing plateZone (size 20) to "constant/polyMesh/sets/plateZone" and to vtk file "VTK/plateZone/plateZone_1.vtk"

End of batch file

End

