/*---------------------------------------------------------------------------*\
| =========                 |                                                 |
| \\      /  F ield         | foam-extend: Open Source CFD                    |
|  \\    /   O peration     | Version:     3.2                                |
|   \\  /    A nd           | Web:         http://www.foam-extend.org         |
|    \\/     M anipulation  | For copyright notice see file Copyright         |
\*---------------------------------------------------------------------------*/
Build    : 3.2-d71febecea21
Exec     : changeDictionary
Date     : Mar 01 2016
Time     : 11:06:58
Host     : ilrocstar5
PID      : 11688
CtrlDict : "/home/woohyunkim/ElmerFoamFSI/testing/share/Testing/test_data/SimpleStatic/solid/system/controlDict"
Case     : /home/woohyunkim/ElmerFoamFSI/testing/share/Testing/test_data/SimpleStatic/solid
nProcs   : 1
SigFpe   : Enabling floating point exception trapping (FOAM_SIGFPE).

// * * * * * * * * * * * * * * * * * * * * * * * * * * * * * * * * * * * * * //
Create time

Create mesh for time = 0

Read dictionary changeDictionaryDict with replacements for dictionaries 
1
(
boundary
)

Replacing entries in dictionary boundary
Special handling of boundary as polyMesh/boundary file.
Loaded dictionary boundary with entries 
6
(
left
right
bottom
fsiFace
front
back
)

Merging entries from 
2
(
front
back
)

fieldDict:
{
    left
    {
        type            wall;
        nFaces          5;
        startFace       175;
    }
    right
    {
        type            patch;
        nFaces          5;
        startFace       180;
    }
    bottom
    {
        type            patch;
        nFaces          20;
        startFace       185;
    }
    fsiFace
    {
        type            wall;
        nFaces          20;
        startFace       205;
    }
    front
    {
        type            empty;
        nFaces          100;
        startFace       225;
    }
    back
    {
        type            empty;
        nFaces          100;
        startFace       325;
    }
}

Writing modified fieldDict boundary

End

