/*---------------------------------------------------------------------------*\
| =========                 |                                                 |
| \\      /  F ield         | foam-extend: Open Source CFD                    |
|  \\    /   O peration     | Version:     3.2                                |
|   \\  /    A nd           | Web:         http://www.foam-extend.org         |
|    \\/     M anipulation  | For copyright notice see file Copyright         |
\*---------------------------------------------------------------------------*/
Build    : 3.2-d71febecea21
Exec     : blockMesh
Date     : Mar 01 2016
Time     : 11:06:57
Host     : ilrocstar5
PID      : 11683
CtrlDict : "/home/woohyunkim/ElmerFoamFSI/testing/share/Testing/test_data/SimpleStatic/fluid/system/controlDict"
Case     : /home/woohyunkim/ElmerFoamFSI/testing/share/Testing/test_data/SimpleStatic/fluid
nProcs   : 1
SigFpe   : Enabling floating point exception trapping (FOAM_SIGFPE).

// * * * * * * * * * * * * * * * * * * * * * * * * * * * * * * * * * * * * * //
Create time


Creating block mesh from
    "/home/woohyunkim/ElmerFoamFSI/testing/share/Testing/test_data/SimpleStatic/fluid/constant/polyMesh/blockMeshDict"

Creating curved edges
Creating topology blocks
Creating topology patches

Reading patches section

Creating block mesh topology

Reading physicalType from existing boundary file

Default patch type set to empty

Check topology

	Basic statistics
		Number of internal faces : 0
		Number of boundary faces : 6
		Number of defined boundary faces : 6
		Number of undefined boundary faces : 0
	Checking patch -> block consistency

Creating block offsets
Creating merge list .

Creating polyMesh from blockMesh
Creating patches
Creating cells
Creating points with scale 1
    Block 0 cell size :
        i : 0.02 .. 0.02
        j : 0.018 .. 0.018
        k : 0.1 .. 0.1


Writing polyMesh
----------------
Mesh Information
----------------
  boundingBox: (0 0.1 0) (0.1 1 1)
  nPoints: 5202
  nCells: 2500
  nFaces: 10100
  nInternalFaces: 4900
----------------
Patches
----------------
  patch 0 (start: 4900 size: 50) name: left
  patch 1 (start: 4950 size: 50) name: right
  patch 2 (start: 5000 size: 50) name: fsiFace
  patch 3 (start: 5050 size: 50) name: top
  patch 4 (start: 5100 size: 2500) name: front
  patch 5 (start: 7600 size: 2500) name: back

End

