Loading FsiFoamModule with name FluidsComponentInterface.
Loading SolverModule: StructuresComponentInterface
ElmerFoamDriver:Initialize: Final Time = 0.05
ElmerFoamDriver:Initialize: Time Step  = 0.002
/*---------------------------------------------------------------------------*\
| =========                 |                                                 |
| \\      /  F ield         | foam-extend: Open Source CFD                    |
|  \\    /   O peration     | Version:     3.2                                |
|   \\  /    A nd           | Web:         http://www.foam-extend.org         |
|    \\/     M anipulation  | For copyright notice see file Copyright         |
\*---------------------------------------------------------------------------*/
Build    : 3.2-d71febecea21
Exec     : test
Date     : Mar 01 2016
Time     : 11:07:05
Host     : ilrocstar5
PID      : 11695
CtrlDict : "/home/woohyunkim/ElmerFoamFSI/testing/share/Testing/test_data/SimpleStatic/fluid/system/controlDict"
Case     : /home/woohyunkim/ElmerFoamFSI/testing/share/Testing/test_data/SimpleStatic/fluid
nProcs   : 1
SigFpe   : Enabling floating point exception trapping (FOAM_SIGFPE).

// * * * * * * * * * * * * * * * * * * * * * * * * * * * * * * * * * * * * * //
FsiFoam:Initialize: Create dynamic mesh for time = 0
--> FOAM Warning : 
    From function dlLibraryTable::open(const fileName& functionLibName)
    in file db/dlLibraryTable/dlLibraryTable.C at line 124
    could not load /home/woohyunkim/ElmerFoamFSI//foam/foam-extend-3.2/lib/linux64GccDPOpt/libmesquiteMotionSolver.so: undefined symbol: _ZTIN4Foam11regIOobjectE
--> FOAM Warning : 
    From function dynamicFvMesh::New(const IOobject& io)
    in file dynamicFvMesh/newDynamicFvMesh.C at line 42
    Loading of dynamic mesh library libmesquiteMotionSolver.so unsuccesful. Some dynamic mesh  methods may not be  available
Selecting dynamicFvMesh dynamicMotionSolverFvMesh
Selecting motion solver: laplace
Selecting motion diffusivity: quadratic
FsiFoam:Initialize: Reading transportProperties
FsiFoam:CreateFluidFields: Reading field p
FsiFoam:CreateFluidFields: Reading field U
FsiFoam:CreateFluidFields: Reading/calculating face flux field phi
FsiFoam:CreateStructuresFields: Reading incremental displacement field DU
Patch right	Traction boundary field: DU
	nonLinear set to updated Lagrangian
--> FOAM Warning : The gradScheme for DU should be "extendedLeastSquares 0" for the boundary non-orthogonal correction to be right
Patch bottom	Traction boundary field: DU
	nonLinear set to updated Lagrangian
--> FOAM Warning : The gradScheme for DU should be "extendedLeastSquares 0" for the boundary non-orthogonal correction to be right
Patch fsiFace	Traction boundary field: DU
	nonLinear set to updated Lagrangian
--> FOAM Warning : The gradScheme for DU should be "extendedLeastSquares 0" for the boundary non-orthogonal correction to be right
FsiFoam:CreateStructuresFields: Reading incremental displacement field DV
FsiFoam:CreateStructuresFields: Reading accumulated velocity field V
FsiFoam:CreateStructuresFields: Reading accumulated stress field sigma
FsiFoam:CreateStructuresFields: Reading incremental stress field DSigma
Selecting rheology model linearElastic
Creating constitutive model
FsiFoam:ReadCouplingProperties: Reading coupling properties
FsiFoam:ReadCouplingProperties:Solid patch ID: 3
FsiFoam:CreateInterZoneInterpolators: Create fluid-to-solid and solid-to-fluid interpolators
FsiFoam:CreateInterZoneInterpolators: Check fluid-to-solid and solid-to-fluid interpolators
FsiFoam:CreateInterZoneInterpolators: Fluid-to-solid face interpolation error: 0.00326087
FsiFoam:CreateInterZoneInterpolators: Solid-to-fluid face interpolation error: 0.024375
 SolverModule:Initializer: Starting ...
ELMER SOLVER (v 8.0) STARTED AT: 2016/03/01 11:07:05
ParCommInit:  Initialize #PEs:            1
MAIN: 
MAIN: =============================================================
MAIN: MyElmerSolver finite element software, Welcome!
MAIN: This program is free software licensed under (L)GPL
MAIN: Copyright 1st April 1995 - , CSC - IT Center for Science Ltd.
MAIN: Webpage http://www.csc.fi/elmer, Email elmeradm@csc.fi
MAIN: Library version: 8.0 (Rev: 487756e)
MAIN: =============================================================
 MyInitialize: Setting FirstTime to FALSE
MAIN: 
MAIN: 
MAIN: -------------------------------------
MAIN: Reading Model: case.sif
Loading user function library: [MyLibrary]...[MyFunction2]
Loading user function library: [ElasticSolve]...[ElasticSolver_Init0]
LoadMesh: Base mesh name: ./.
LoadMesh: Elapsed time (CPU,REAL):     0.0020    0.0019 (s)
MAIN: -------------------------------------
AddVtuOutputSolverHack: Adding ResultOutputSolver to write VTU output in file: case
Loading user function library: [ElasticSolve]...[ElasticSolver_Init]
Loading user function library: [ElasticSolve]...[ElasticSolver]
OptimizeBandwidth: ---------------------------------------------------------
OptimizeBandwidth: Computing matrix structure for: nonlinear elasticity...done.
OptimizeBandwidth: Half bandwidth without optimization: 12
OptimizeBandwidth: 
OptimizeBandwidth: Bandwidth Optimization ...done.
OptimizeBandwidth: Half bandwidth after optimization: 16
OptimizeBandwidth: Bandwidth optimization rejected, using original ordering.
OptimizeBandwidth: ---------------------------------------------------------
Loading user function library: [ResultOutputSolve]...[ResultOutputSolver_Init]
Loading user function library: [ResultOutputSolve]...[ResultOutputSolver]
 Equation = nonlinear elasticity                                                                                                            

 SolverModule:Initializer: Done.....
Stride = 3 Cap = 102
Building pane connectivity...Done
Building pane connectivity...Done
	Mesh StructuresComponentInterface: 102 vertices, 50 faces, with bounding box 0 0.1 0 0.1 0.1 1
	Mesh FluidsComponentInterface: 102 vertices, 50 faces, with bounding box 0 0.1 0 0.1 0.1 1
	Found 4 ridges and 4 corners and dropped 0 false-strong edges.
	Done in 0 sec.
	Found 4 ridges and 4 corners and dropped 0 false-strong edges.
	Done in 0 sec.
Performing mesh overlay...
The input meshes have opposite orientations
Starting with seed vertex 3 in pane 11 of blue mesh at (0,0.1,0.02)
.........
	Located 102 edge intersections.
	Done in 0.0372601 sec.
Exporting the subdivision...Done in 0.0202899 sec.


***************************************** 
       Starting Stepping in Time          
***************************************** 

ElmerFoamDriver:Run: Summary of the simulation 
     Simulation Type       = ElmerFoamFSI
     Simulation final time = 0.05
     Simulation time step  = 0.002

ElmerFoamDriver:Run: System timestep 1 @ Time = 0
ElmerFoamDriver:Run: Transferring displacements from structures to fluids @ time(0)
ElmerFoamDriver:TransferDisplacementsToFluid: Solid displacements for node 0: 
1.07098e-312 1.07098e-312 1.09415e-316
ElmerFoamDriver:TransferDisplacementsToFluid: Fluid displacements for node 0: 
1.07098e-312 1.07098e-312 1.09415e-316
ElmerFoamDriver:Run: Stepping fluids to time(0.002)
FsiFoam:StepFluid: Stepping fluid solver...
FsiFoam:StepFluid: Time = 0
FsiFoam:ReadFSIControl: Selecting coupling scheme Aitken
FsiFoam:ReadFSIControl: outerCorrTolerance = 0.0001
FsiFoam:ReadFSIControl: FSI IS ENABLED.
FsiFoam:StepFluidNonItr: outerCorr = 1
FsiFoam:StepFluidNonItr: Time = 0.001, iteration: 1
FsiFoam:UpdateFSISurface: Reporting solid displacements to the fluid solver
FsiFoam:StepFluidNonItr: Maximal accumulated displacement of interface points: 1.18998e-310
FsiFoam:StepFluidNonItr: Moving only interface...Compensating for mesh movment !
FsiFoam:StepFluidNonItr: Courant Number mean: 0 max: 2.67773e-311 velocity magnitude: 2.67773e-310
DILUPBiCG:  Solving for Uy, Initial residual = 0.988602, Final residual = 5.81208e-11, No Iterations 2
DILUPBiCG:  Solving for Uz, Initial residual = 0.990861, Final residual = 5.82829e-11, No Iterations 2
GAMG:  Solving for p, Initial residual = 0.999835, Final residual = 1.0419, No Iterations 1000
GAMG:  Solving for p, Initial residual = 0.332413, Final residual = 0.322347, No Iterations 1000
FsiFoam:StepFluidNonItr: time step continuity errors : sum local = 8.58329e-19, global = -5.02949e-20, cumulative = -5.02949e-20
GAMG:  Solving for p, Initial residual = 0.321485, Final residual = 0.34837, No Iterations 1000
GAMG:  Solving for p, Initial residual = 0.339767, Final residual = 0.326229, No Iterations 1000
FsiFoam:StepFluidNonItr: time step continuity errors : sum local = 8.67835e-19, global = -3.16226e-20, cumulative = -8.19175e-20
FsiFoam:StepFluid: ExecutionTime = 1.86 s  ClockTime = 1 s
FsiFoam:UpdateFSISurface: Reporting surface loads to the solid solver 
ElmerFoamDriver:TransferLoadsToStructures: Transfering loads to the structures solver.
ElmerFoamDriver:Run: Stepping structures to time(0.002)
 MyTimeModule:MyTimeStepper: Timesteps(interval) =            0
 MyTimeModule:MyTimeStepper: Timesteps(interval) =            1
MAIN: 
MAIN: -------------------------------------
MAIN:  Time: 1/1   1.0000000000000000E-003
MAIN: -------------------------------------
MAIN: 
 MyTimeModule:UpdateLoads: Updating loads on the structure
 MyTimeModule:UpdateLoads: Time Step Summary 
     sTime(1)     =    1.0000000000000000E-003
     PreviousTime =    0.0000000000000000     
     FinalTime    =    2.0000000000000000E-003
 MyTimeModule:UpdateLoads: Finishing
 MyTimeModule:MyTimeStepper: Calling SolveEquations
    Transient =  T
SingleSolver: Attempting to call solver
SingleSolver: Solver Equation string is: nonlinear elasticity
ElasticSolve: 
ElasticSolve: 
ElasticSolve: -------------------------------------
ElasticSolve:  ELASTICITY ITERATION              1
ElasticSolve: -------------------------------------
ElasticSolve: 
ElasticSolve: Starting assembly...
 Beta =    0.0000000000000000        0.0000000000000000        0.0000000000000000        0.0000000000000000     
 Beta =    0.0000000000000000        0.0000000000000000        0.0000000000000000        0.0000000000000000     
 Beta =    0.0000000000000000        0.0000000000000000        0.0000000000000000        0.0000000000000000     
 Beta =    0.0000000000000000        0.0000000000000000        0.0000000000000000        0.0000000000000000     
 Beta =    0.0000000000000000        0.0000000000000000        0.0000000000000000        0.0000000000000000     
 Beta =    0.0000000000000000        0.0000000000000000        0.0000000000000000        0.0000000000000000     
 Beta =    0.0000000000000000        0.0000000000000000        0.0000000000000000        0.0000000000000000     
 Beta =    0.0000000000000000        0.0000000000000000        0.0000000000000000        0.0000000000000000     
 Beta =    0.0000000000000000        0.0000000000000000        0.0000000000000000        0.0000000000000000     
 Beta =    0.0000000000000000        0.0000000000000000        0.0000000000000000        0.0000000000000000     
 Beta =    0.0000000000000000        0.0000000000000000        0.0000000000000000        0.0000000000000000     
 Beta =    0.0000000000000000        0.0000000000000000        0.0000000000000000        0.0000000000000000     
 Beta =    0.0000000000000000        0.0000000000000000        0.0000000000000000        0.0000000000000000     
 Beta =    0.0000000000000000        0.0000000000000000        0.0000000000000000        0.0000000000000000     
 Beta =    0.0000000000000000        0.0000000000000000        0.0000000000000000        0.0000000000000000     
 Beta =    0.0000000000000000        0.0000000000000000        0.0000000000000000        0.0000000000000000     
 Beta =    0.0000000000000000        0.0000000000000000        0.0000000000000000        0.0000000000000000     
 Beta =    0.0000000000000000        0.0000000000000000        0.0000000000000000        0.0000000000000000     
 Beta =    0.0000000000000000        0.0000000000000000        0.0000000000000000        0.0000000000000000     
 Beta =    0.0000000000000000        0.0000000000000000        0.0000000000000000        0.0000000000000000     
 Beta =    0.0000000000000000        0.0000000000000000        0.0000000000000000        0.0000000000000000     
 Beta =    0.0000000000000000        0.0000000000000000        0.0000000000000000        0.0000000000000000     
 Beta =    0.0000000000000000        0.0000000000000000        0.0000000000000000        0.0000000000000000     
 Beta =    0.0000000000000000        0.0000000000000000        0.0000000000000000        0.0000000000000000     
 Beta =    0.0000000000000000        0.0000000000000000        0.0000000000000000        0.0000000000000000     
 Beta =    0.0000000000000000        0.0000000000000000        0.0000000000000000        0.0000000000000000     
 Beta =    0.0000000000000000        0.0000000000000000        0.0000000000000000        0.0000000000000000     
 Beta =    0.0000000000000000        0.0000000000000000        0.0000000000000000        0.0000000000000000     
 Beta =    0.0000000000000000        0.0000000000000000        0.0000000000000000        0.0000000000000000     
 Beta =    0.0000000000000000        0.0000000000000000        0.0000000000000000        0.0000000000000000     
 Beta =    0.0000000000000000        0.0000000000000000        0.0000000000000000        0.0000000000000000     
 Beta =    0.0000000000000000        0.0000000000000000        0.0000000000000000        0.0000000000000000     
 Beta =    0.0000000000000000        0.0000000000000000        0.0000000000000000        0.0000000000000000     
 Beta =    0.0000000000000000        0.0000000000000000        0.0000000000000000        0.0000000000000000     
 Beta =    0.0000000000000000        0.0000000000000000        0.0000000000000000        0.0000000000000000     
 Beta =    0.0000000000000000        0.0000000000000000        0.0000000000000000        0.0000000000000000     
 Beta =    0.0000000000000000        0.0000000000000000        0.0000000000000000        0.0000000000000000     
 Beta =    0.0000000000000000        0.0000000000000000        0.0000000000000000        0.0000000000000000     
 Beta =    0.0000000000000000        0.0000000000000000        0.0000000000000000        0.0000000000000000     
 Beta =    0.0000000000000000        0.0000000000000000        0.0000000000000000        0.0000000000000000     
 Beta =    0.0000000000000000        0.0000000000000000        0.0000000000000000        0.0000000000000000     
 Beta =    0.0000000000000000        0.0000000000000000        0.0000000000000000        0.0000000000000000     
 Beta =    0.0000000000000000        0.0000000000000000        0.0000000000000000        0.0000000000000000     
 Beta =    0.0000000000000000        0.0000000000000000        0.0000000000000000        0.0000000000000000     
 Beta =    0.0000000000000000        0.0000000000000000        0.0000000000000000        0.0000000000000000     
 Beta =    0.0000000000000000        0.0000000000000000        0.0000000000000000        0.0000000000000000     
 Beta =    0.0000000000000000        0.0000000000000000        0.0000000000000000        0.0000000000000000     
 Beta =    0.0000000000000000        0.0000000000000000        0.0000000000000000        0.0000000000000000     
 Beta =    0.0000000000000000        0.0000000000000000        0.0000000000000000        0.0000000000000000     
 Beta =    0.0000000000000000        0.0000000000000000        0.0000000000000000        0.0000000000000000     
 Beta =    0.0000000000000000        0.0000000000000000        0.0000000000000000        0.0000000000000000     
 Beta =    0.0000000000000000        0.0000000000000000        0.0000000000000000        0.0000000000000000     
 Beta =    0.0000000000000000        0.0000000000000000        0.0000000000000000        0.0000000000000000     
 Beta =    0.0000000000000000        0.0000000000000000        0.0000000000000000        0.0000000000000000     
 Beta =    0.0000000000000000        0.0000000000000000        0.0000000000000000        0.0000000000000000     
 Beta =    0.0000000000000000        0.0000000000000000        0.0000000000000000        0.0000000000000000     
 Beta =    0.0000000000000000        0.0000000000000000        0.0000000000000000        0.0000000000000000     
 Beta =    0.0000000000000000        0.0000000000000000        0.0000000000000000        0.0000000000000000     
 Beta =    0.0000000000000000        0.0000000000000000        0.0000000000000000        0.0000000000000000     
 Beta =    0.0000000000000000        0.0000000000000000        0.0000000000000000        0.0000000000000000     
 Beta =    0.0000000000000000        0.0000000000000000        0.0000000000000000        0.0000000000000000     
 Beta =    0.0000000000000000        0.0000000000000000        0.0000000000000000        0.0000000000000000     
 Beta =    0.0000000000000000        0.0000000000000000        0.0000000000000000        0.0000000000000000     
 Beta =    0.0000000000000000        0.0000000000000000        0.0000000000000000        0.0000000000000000     
 Beta =    0.0000000000000000        0.0000000000000000        0.0000000000000000        0.0000000000000000     
 Beta =    0.0000000000000000        0.0000000000000000        0.0000000000000000        0.0000000000000000     
 Beta =    0.0000000000000000        0.0000000000000000        0.0000000000000000        0.0000000000000000     
 Beta =    0.0000000000000000        0.0000000000000000        0.0000000000000000        0.0000000000000000     
 Beta =    0.0000000000000000        0.0000000000000000        0.0000000000000000        0.0000000000000000     
 Beta =    0.0000000000000000        0.0000000000000000        0.0000000000000000        0.0000000000000000     
 Beta =    0.0000000000000000        0.0000000000000000        0.0000000000000000        0.0000000000000000     
 Beta =    0.0000000000000000        0.0000000000000000        0.0000000000000000        0.0000000000000000     
 Beta =    0.0000000000000000        0.0000000000000000        0.0000000000000000        0.0000000000000000     
 Beta =    0.0000000000000000        0.0000000000000000        0.0000000000000000        0.0000000000000000     
 Beta =    0.0000000000000000        0.0000000000000000        0.0000000000000000        0.0000000000000000     
 Beta =    0.0000000000000000        0.0000000000000000        0.0000000000000000        0.0000000000000000     
 Beta =    0.0000000000000000        0.0000000000000000        0.0000000000000000        0.0000000000000000     
 Beta =    0.0000000000000000        0.0000000000000000        0.0000000000000000        0.0000000000000000     
 Beta =    0.0000000000000000        0.0000000000000000        0.0000000000000000        0.0000000000000000     
 Beta =    0.0000000000000000        0.0000000000000000        0.0000000000000000        0.0000000000000000     
 Beta =    0.0000000000000000        0.0000000000000000        0.0000000000000000        0.0000000000000000     
 Beta =    0.0000000000000000        0.0000000000000000        0.0000000000000000        0.0000000000000000     
 Beta =    0.0000000000000000        0.0000000000000000        0.0000000000000000        0.0000000000000000     
 Beta =    0.0000000000000000        0.0000000000000000        0.0000000000000000        0.0000000000000000     
 Beta =    0.0000000000000000        0.0000000000000000        0.0000000000000000        0.0000000000000000     
 Beta =    0.0000000000000000        0.0000000000000000        0.0000000000000000        0.0000000000000000     
 Beta =    0.0000000000000000        0.0000000000000000        0.0000000000000000        0.0000000000000000     
 Beta =    0.0000000000000000        0.0000000000000000        0.0000000000000000        0.0000000000000000     
 Beta =    0.0000000000000000        0.0000000000000000        0.0000000000000000        0.0000000000000000     
 Beta =    0.0000000000000000        0.0000000000000000        0.0000000000000000        0.0000000000000000     
 Beta =    0.0000000000000000        0.0000000000000000        0.0000000000000000        0.0000000000000000     
 Beta =    0.0000000000000000        0.0000000000000000        0.0000000000000000        0.0000000000000000     
 Beta =    0.0000000000000000        0.0000000000000000        0.0000000000000000        0.0000000000000000     
 Beta =    0.0000000000000000        0.0000000000000000        0.0000000000000000        0.0000000000000000     
 Beta =    0.0000000000000000        0.0000000000000000        0.0000000000000000        0.0000000000000000     
 Beta =    0.0000000000000000        0.0000000000000000        0.0000000000000000        0.0000000000000000     
 Beta =    0.0000000000000000        0.0000000000000000        0.0000000000000000        0.0000000000000000     
 Beta =    0.0000000000000000        0.0000000000000000        0.0000000000000000        0.0000000000000000     
 Beta =    0.0000000000000000        0.0000000000000000        0.0000000000000000        0.0000000000000000     
 Beta =    0.0000000000000000        0.0000000000000000        0.0000000000000000        0.0000000000000000     
 Beta =    0.0000000000000000        0.0000000000000000        0.0000000000000000        0.0000000000000000     
 Beta =    0.0000000000000000        0.0000000000000000        0.0000000000000000        0.0000000000000000     
 Beta =    0.0000000000000000        0.0000000000000000        0.0000000000000000        0.0000000000000000     
 Beta =    0.0000000000000000        0.0000000000000000        0.0000000000000000        0.0000000000000000     
 Beta =    0.0000000000000000        0.0000000000000000        0.0000000000000000        0.0000000000000000     
 Beta =    0.0000000000000000        0.0000000000000000        0.0000000000000000        0.0000000000000000     
 Beta =    0.0000000000000000        0.0000000000000000        0.0000000000000000        0.0000000000000000     
 Beta =    0.0000000000000000        0.0000000000000000        0.0000000000000000        0.0000000000000000     
 Beta =    0.0000000000000000        0.0000000000000000        0.0000000000000000        0.0000000000000000     
 Beta =    0.0000000000000000        0.0000000000000000        0.0000000000000000        0.0000000000000000     
 Beta =    0.0000000000000000        0.0000000000000000        0.0000000000000000        0.0000000000000000     
 Beta =    0.0000000000000000        0.0000000000000000        0.0000000000000000        0.0000000000000000     
 Beta =    0.0000000000000000        0.0000000000000000        0.0000000000000000        0.0000000000000000     
 Beta =    0.0000000000000000        0.0000000000000000        0.0000000000000000        0.0000000000000000     
 Beta =    0.0000000000000000        0.0000000000000000        0.0000000000000000        0.0000000000000000     
 Beta =    0.0000000000000000        0.0000000000000000        0.0000000000000000        0.0000000000000000     
 Beta =    0.0000000000000000        0.0000000000000000        0.0000000000000000        0.0000000000000000     
 Beta =    0.0000000000000000        0.0000000000000000        0.0000000000000000        0.0000000000000000     
 Beta =    0.0000000000000000        0.0000000000000000        0.0000000000000000        0.0000000000000000     
 Beta =    0.0000000000000000        0.0000000000000000        0.0000000000000000        0.0000000000000000     
 Beta =    0.0000000000000000        0.0000000000000000        0.0000000000000000        0.0000000000000000     
 Beta =    0.0000000000000000        0.0000000000000000        0.0000000000000000        0.0000000000000000     
 Beta =    0.0000000000000000        0.0000000000000000        0.0000000000000000        0.0000000000000000     
 Beta =    0.0000000000000000        0.0000000000000000        0.0000000000000000        0.0000000000000000     
 Beta =    0.0000000000000000        0.0000000000000000        0.0000000000000000        0.0000000000000000     
 Beta =    0.0000000000000000        0.0000000000000000        0.0000000000000000        0.0000000000000000     
 Beta =    0.0000000000000000        0.0000000000000000        0.0000000000000000        0.0000000000000000     
 Beta =    0.0000000000000000        0.0000000000000000        0.0000000000000000        0.0000000000000000     
 Beta =    0.0000000000000000        0.0000000000000000        0.0000000000000000        0.0000000000000000     
 Beta =    0.0000000000000000        0.0000000000000000        0.0000000000000000        0.0000000000000000     
 Beta =    0.0000000000000000        0.0000000000000000        0.0000000000000000        0.0000000000000000     
 Beta =    0.0000000000000000        0.0000000000000000        0.0000000000000000        0.0000000000000000     
 Beta =    0.0000000000000000        0.0000000000000000        0.0000000000000000        0.0000000000000000     
 Beta =    0.0000000000000000        0.0000000000000000        0.0000000000000000        0.0000000000000000     
 Beta =    0.0000000000000000        0.0000000000000000        0.0000000000000000        0.0000000000000000     
 Beta =    0.0000000000000000        0.0000000000000000        0.0000000000000000        0.0000000000000000     
 Beta =    0.0000000000000000        0.0000000000000000        0.0000000000000000        0.0000000000000000     
 Beta =    0.0000000000000000        0.0000000000000000        0.0000000000000000        0.0000000000000000     
 Beta =    0.0000000000000000        0.0000000000000000        0.0000000000000000        0.0000000000000000     
 Beta =    0.0000000000000000        0.0000000000000000        0.0000000000000000        0.0000000000000000     
 Beta =    0.0000000000000000        0.0000000000000000        0.0000000000000000        0.0000000000000000     
 Beta =    0.0000000000000000        0.0000000000000000        0.0000000000000000        0.0000000000000000     
 Beta =    0.0000000000000000        0.0000000000000000        0.0000000000000000        0.0000000000000000     
 Beta =    0.0000000000000000        0.0000000000000000        0.0000000000000000        0.0000000000000000     
 Beta =    0.0000000000000000        0.0000000000000000        0.0000000000000000        0.0000000000000000     
 Beta =    0.0000000000000000        0.0000000000000000        0.0000000000000000        0.0000000000000000     
 Beta =    0.0000000000000000        0.0000000000000000        0.0000000000000000        0.0000000000000000     
 Beta =    0.0000000000000000        0.0000000000000000        0.0000000000000000        0.0000000000000000     
 Beta =    0.0000000000000000        0.0000000000000000        0.0000000000000000        0.0000000000000000     
 Beta =    0.0000000000000000        0.0000000000000000        0.0000000000000000        0.0000000000000000     
 Beta =    0.0000000000000000        0.0000000000000000        0.0000000000000000        0.0000000000000000     
 Normal =   0.0000000000000000        1.0000000000000000        1.7347234759768071E-016
 Normal =   0.0000000000000000        1.0000000000000000        0.0000000000000000     
 Normal =   0.0000000000000000        1.0000000000000000        1.7347234759768071E-016
 Normal =   0.0000000000000000        1.0000000000000000        0.0000000000000000     
 Beta =    0.0000000000000000        0.0000000000000000        0.0000000000000000        0.0000000000000000     
 Normal =   0.0000000000000000        1.0000000000000000        1.7347234759768071E-016
 Normal =   0.0000000000000000        1.0000000000000000        0.0000000000000000     
 Normal =   0.0000000000000000        1.0000000000000000        1.7347234759768071E-016
 Normal =   0.0000000000000000        1.0000000000000000        0.0000000000000000     
 Beta =    0.0000000000000000        0.0000000000000000        0.0000000000000000        0.0000000000000000     
 Normal =   0.0000000000000000        1.0000000000000000        1.7347234759768076E-016
 Normal =   0.0000000000000000        1.0000000000000000        0.0000000000000000     
 Normal =   0.0000000000000000        1.0000000000000000        1.7347234759768076E-016
 Normal =   0.0000000000000000        1.0000000000000000        0.0000000000000000     
 Beta =    0.0000000000000000        0.0000000000000000        0.0000000000000000        0.0000000000000000     
 Normal =   0.0000000000000000        1.0000000000000000        1.7347234759768068E-016
 Normal =   0.0000000000000000        1.0000000000000000        0.0000000000000000     
 Normal =   0.0000000000000000        1.0000000000000000        1.7347234759768068E-016
 Normal =   0.0000000000000000        1.0000000000000000        0.0000000000000000     
 Beta =    0.0000000000000000        0.0000000000000000        0.0000000000000000        0.0000000000000000     
 Normal =   0.0000000000000000        1.0000000000000000        1.7347234759768071E-016
 Normal =   0.0000000000000000        1.0000000000000000        0.0000000000000000     
 Normal =   0.0000000000000000        1.0000000000000000        1.7347234759768071E-016
 Normal =   0.0000000000000000        1.0000000000000000        0.0000000000000000     
 Beta =    0.0000000000000000        0.0000000000000000        0.0000000000000000        0.0000000000000000     
 Normal =   0.0000000000000000        1.0000000000000000        1.7347234759768076E-016
 Normal =   0.0000000000000000        1.0000000000000000        0.0000000000000000     
 Normal =   0.0000000000000000        1.0000000000000000        1.7347234759768076E-016
 Normal =   0.0000000000000000        1.0000000000000000        0.0000000000000000     
 Beta =    0.0000000000000000        0.0000000000000000        0.0000000000000000        0.0000000000000000     
 Normal =   0.0000000000000000        1.0000000000000000        1.7347234759768051E-016
 Normal =   0.0000000000000000       0.99999999999999978        0.0000000000000000     
 Normal =   0.0000000000000000        1.0000000000000000        1.7347234759768051E-016
 Normal =   0.0000000000000000       0.99999999999999978        0.0000000000000000     
 Beta =    0.0000000000000000        0.0000000000000000        0.0000000000000000        0.0000000000000000     
 Normal =   0.0000000000000000        1.0000000000000000        1.7347234759768081E-016
 Normal =   0.0000000000000000        1.0000000000000000        0.0000000000000000     
 Normal =   0.0000000000000000        1.0000000000000000        1.7347234759768081E-016
 Normal =   0.0000000000000000        1.0000000000000000        0.0000000000000000     
 Beta =    0.0000000000000000        0.0000000000000000        0.0000000000000000        0.0000000000000000     
 Normal =   0.0000000000000000        1.0000000000000000        1.7347234759768076E-016
 Normal =   0.0000000000000000        1.0000000000000000        0.0000000000000000     
 Normal =   0.0000000000000000        1.0000000000000000        1.7347234759768076E-016
 Normal =   0.0000000000000000        1.0000000000000000        0.0000000000000000     
 Beta =    0.0000000000000000        0.0000000000000000        0.0000000000000000        0.0000000000000000     
 Normal =   0.0000000000000000        1.0000000000000000        1.7347234759768061E-016
 Normal =   0.0000000000000000       0.99999999999999978        0.0000000000000000     
 Normal =   0.0000000000000000        1.0000000000000000        1.7347234759768061E-016
 Normal =   0.0000000000000000       0.99999999999999978        0.0000000000000000     
 Beta =    0.0000000000000000        0.0000000000000000        0.0000000000000000        0.0000000000000000     
 Normal =   0.0000000000000000        1.0000000000000000        1.7347234759768081E-016
 Normal =   0.0000000000000000        1.0000000000000000        0.0000000000000000     
 Normal =   0.0000000000000000        1.0000000000000000        1.7347234759768081E-016
 Normal =   0.0000000000000000        1.0000000000000000        0.0000000000000000     
 Beta =    0.0000000000000000        0.0000000000000000        0.0000000000000000        0.0000000000000000     
 Normal =   0.0000000000000000        1.0000000000000000        1.7347234759768076E-016
 Normal =   0.0000000000000000        1.0000000000000000        0.0000000000000000     
 Normal =   0.0000000000000000        1.0000000000000000        1.7347234759768076E-016
 Normal =   0.0000000000000000        1.0000000000000000        0.0000000000000000     
 Beta =    0.0000000000000000        0.0000000000000000        0.0000000000000000        0.0000000000000000     
 Normal =   0.0000000000000000        1.0000000000000000        1.7347234759768061E-016
 Normal =   0.0000000000000000       0.99999999999999978        0.0000000000000000     
 Normal =   0.0000000000000000        1.0000000000000000        1.7347234759768061E-016
 Normal =   0.0000000000000000       0.99999999999999978        0.0000000000000000     
 Beta =    0.0000000000000000        0.0000000000000000        0.0000000000000000        0.0000000000000000     
 Normal =   0.0000000000000000        1.0000000000000000        1.7347234759768049E-016
 Normal =   0.0000000000000000       0.99999999999999978        0.0000000000000000     
 Normal =   0.0000000000000000        1.0000000000000000        1.7347234759768049E-016
 Normal =   0.0000000000000000       0.99999999999999978        0.0000000000000000     
 Beta =    0.0000000000000000        0.0000000000000000        0.0000000000000000        0.0000000000000000     
 Normal =   0.0000000000000000        1.0000000000000000        1.7347234759768091E-016
 Normal =   0.0000000000000000        1.0000000000000000        0.0000000000000000     
 Normal =   0.0000000000000000        1.0000000000000000        1.7347234759768091E-016
 Normal =   0.0000000000000000        1.0000000000000000        0.0000000000000000     
 Beta =    0.0000000000000000        0.0000000000000000        0.0000000000000000        0.0000000000000000     
 Normal =   0.0000000000000000       0.99999999999999978        1.7347234759768051E-016
 Normal =   0.0000000000000000       0.99999999999999978        0.0000000000000000     
 Normal =   0.0000000000000000       0.99999999999999978        1.7347234759768051E-016
 Normal =   0.0000000000000000       0.99999999999999978        0.0000000000000000     
 Beta =    0.0000000000000000        0.0000000000000000        0.0000000000000000        0.0000000000000000     
 Normal =   0.0000000000000000        1.0000000000000000        1.7347234759768068E-016
 Normal =   0.0000000000000000       0.99999999999999978        0.0000000000000000     
 Normal =   0.0000000000000000        1.0000000000000000        1.7347234759768068E-016
 Normal =   0.0000000000000000       0.99999999999999978        0.0000000000000000     
 Beta =    0.0000000000000000        0.0000000000000000        0.0000000000000000        0.0000000000000000     
 Normal =   0.0000000000000000        1.0000000000000000        1.7347234759768091E-016
 Normal =   0.0000000000000000        1.0000000000000000        0.0000000000000000     
 Normal =   0.0000000000000000        1.0000000000000000        1.7347234759768091E-016
 Normal =   0.0000000000000000        1.0000000000000000        0.0000000000000000     
 Beta =    0.0000000000000000        0.0000000000000000        0.0000000000000000        0.0000000000000000     
 Normal =   0.0000000000000000       0.99999999999999978        1.7347234759768051E-016
 Normal =   0.0000000000000000       0.99999999999999978        0.0000000000000000     
 Normal =   0.0000000000000000       0.99999999999999978        1.7347234759768051E-016
 Normal =   0.0000000000000000       0.99999999999999978        0.0000000000000000     
 Beta =    0.0000000000000000        0.0000000000000000        0.0000000000000000        0.0000000000000000     
 Normal =   0.0000000000000000        1.0000000000000000        1.7347234759768068E-016
 Normal =   0.0000000000000000       0.99999999999999978        0.0000000000000000     
 Normal =   0.0000000000000000        1.0000000000000000        1.7347234759768068E-016
 Normal =   0.0000000000000000       0.99999999999999978        0.0000000000000000     
 Beta =    0.0000000000000000        0.0000000000000000        0.0000000000000000        0.0000000000000000     
 Normal =   0.0000000000000000        1.0000000000000000        1.7347234759768091E-016
 Normal =   0.0000000000000000        1.0000000000000000        0.0000000000000000     
 Normal =   0.0000000000000000        1.0000000000000000        1.7347234759768091E-016
 Normal =   0.0000000000000000        1.0000000000000000        0.0000000000000000     
 Beta =    0.0000000000000000        0.0000000000000000        0.0000000000000000        0.0000000000000000     
 Normal =   0.0000000000000000       0.99999999999999978        1.7347234759768051E-016
 Normal =   0.0000000000000000       0.99999999999999978        0.0000000000000000     
 Normal =   0.0000000000000000       0.99999999999999978        1.7347234759768051E-016
 Normal =   0.0000000000000000       0.99999999999999978        0.0000000000000000     
 Beta =    0.0000000000000000        0.0000000000000000        0.0000000000000000        0.0000000000000000     
 Normal =   0.0000000000000000        1.0000000000000000        1.7347234759768068E-016
 Normal =   0.0000000000000000       0.99999999999999978        0.0000000000000000     
 Normal =   0.0000000000000000        1.0000000000000000        1.7347234759768068E-016
 Normal =   0.0000000000000000       0.99999999999999978        0.0000000000000000     
 Beta =    0.0000000000000000        0.0000000000000000        0.0000000000000000        0.0000000000000000     
 Normal =   0.0000000000000000        1.0000000000000000        1.7347234759768091E-016
 Normal =   0.0000000000000000        1.0000000000000000        0.0000000000000000     
 Normal =   0.0000000000000000        1.0000000000000000        1.7347234759768091E-016
 Normal =   0.0000000000000000        1.0000000000000000        0.0000000000000000     
 Beta =    0.0000000000000000        0.0000000000000000        0.0000000000000000        0.0000000000000000     
 Normal =   0.0000000000000000       0.99999999999999978        1.7347234759768051E-016
 Normal =   0.0000000000000000       0.99999999999999978        0.0000000000000000     
 Normal =   0.0000000000000000       0.99999999999999978        1.7347234759768051E-016
 Normal =   0.0000000000000000       0.99999999999999978        0.0000000000000000     
 Beta =    0.0000000000000000        0.0000000000000000        0.0000000000000000        0.0000000000000000     
 Normal =   0.0000000000000000        1.0000000000000000        1.7347234759768068E-016
 Normal =   0.0000000000000000       0.99999999999999978        0.0000000000000000     
 Normal =   0.0000000000000000        1.0000000000000000        1.7347234759768068E-016
 Normal =   0.0000000000000000       0.99999999999999978        0.0000000000000000     
 Beta =    0.0000000000000000        0.0000000000000000        0.0000000000000000        0.0000000000000000     
 Normal =   0.0000000000000000        1.0000000000000000        1.7347234759768032E-016
 Normal =   0.0000000000000000        1.0000000000000000        0.0000000000000000     
 Normal =   0.0000000000000000        1.0000000000000000        1.7347234759768032E-016
 Normal =   0.0000000000000000        1.0000000000000000        0.0000000000000000     
 Beta =    0.0000000000000000        0.0000000000000000        0.0000000000000000        0.0000000000000000     
 Normal =   0.0000000000000000       0.99999999999999978        1.7347234759768041E-016
 Normal =   0.0000000000000000       0.99999999999999978        0.0000000000000000     
 Normal =   0.0000000000000000       0.99999999999999978        1.7347234759768041E-016
 Normal =   0.0000000000000000       0.99999999999999978        0.0000000000000000     
 Beta =    0.0000000000000000        0.0000000000000000        0.0000000000000000        0.0000000000000000     
 Normal =   0.0000000000000000        1.0000000000000000        1.7347234759768177E-016
 Normal =   0.0000000000000000        1.0000000000000000        0.0000000000000000     
 Normal =   0.0000000000000000        1.0000000000000000        1.7347234759768177E-016
 Normal =   0.0000000000000000        1.0000000000000000        0.0000000000000000     
 Beta =    0.0000000000000000        0.0000000000000000        0.0000000000000000        0.0000000000000000     
 Normal =   0.0000000000000000        1.0000000000000000        1.7347234759768032E-016
 Normal =   0.0000000000000000       0.99999999999999978        0.0000000000000000     
 Normal =   0.0000000000000000        1.0000000000000000        1.7347234759768032E-016
 Normal =   0.0000000000000000       0.99999999999999978        0.0000000000000000     
 Beta =    0.0000000000000000        0.0000000000000000        0.0000000000000000        0.0000000000000000     
 Normal =   0.0000000000000000       0.99999999999999978        1.7347234759768051E-016
 Normal =   0.0000000000000000       0.99999999999999978        0.0000000000000000     
 Normal =   0.0000000000000000       0.99999999999999978        1.7347234759768051E-016
 Normal =   0.0000000000000000       0.99999999999999978        0.0000000000000000     
 Beta =    0.0000000000000000        0.0000000000000000        0.0000000000000000        0.0000000000000000     
 Normal =   0.0000000000000000       0.99999999999999978        1.7347234759768051E-016
 Normal =   0.0000000000000000       0.99999999999999978        0.0000000000000000     
 Normal =   0.0000000000000000       0.99999999999999978        1.7347234759768051E-016
 Normal =   0.0000000000000000       0.99999999999999978        0.0000000000000000     
 Beta =    0.0000000000000000        0.0000000000000000        0.0000000000000000        0.0000000000000000     
 Normal =   0.0000000000000000        1.0000000000000000        1.7347234759768081E-016
 Normal =   0.0000000000000000       0.99999999999999978        0.0000000000000000     
 Normal =   0.0000000000000000        1.0000000000000000        1.7347234759768081E-016
 Normal =   0.0000000000000000       0.99999999999999978        0.0000000000000000     
 Beta =    0.0000000000000000        0.0000000000000000        0.0000000000000000        0.0000000000000000     
 Normal =   0.0000000000000000        1.0000000000000000        1.7347234759768081E-016
 Normal =   0.0000000000000000       0.99999999999999978        0.0000000000000000     
 Normal =   0.0000000000000000        1.0000000000000000        1.7347234759768081E-016
 Normal =   0.0000000000000000       0.99999999999999978        0.0000000000000000     
 Beta =    0.0000000000000000        0.0000000000000000        0.0000000000000000        0.0000000000000000     
 Normal =   0.0000000000000000        1.0000000000000000        1.7347234759768128E-016
 Normal =   0.0000000000000000        1.0000000000000000        0.0000000000000000     
 Normal =   0.0000000000000000        1.0000000000000000        1.7347234759768128E-016
 Normal =   0.0000000000000000        1.0000000000000000        0.0000000000000000     
 Beta =    0.0000000000000000        0.0000000000000000        0.0000000000000000        0.0000000000000000     
 Normal =   0.0000000000000000        1.0000000000000000        1.7347234759768032E-016
 Normal =   0.0000000000000000       0.99999999999999978        0.0000000000000000     
 Normal =   0.0000000000000000        1.0000000000000000        1.7347234759768032E-016
 Normal =   0.0000000000000000       0.99999999999999978        0.0000000000000000     
 Beta =    0.0000000000000000        0.0000000000000000        0.0000000000000000        0.0000000000000000     
 Normal =   0.0000000000000000       0.99999999999999978        1.7347234759768051E-016
 Normal =   0.0000000000000000       0.99999999999999978        0.0000000000000000     
 Normal =   0.0000000000000000       0.99999999999999978        1.7347234759768051E-016
 Normal =   0.0000000000000000       0.99999999999999978        0.0000000000000000     
 Beta =    0.0000000000000000        0.0000000000000000        0.0000000000000000        0.0000000000000000     
 Normal =   0.0000000000000000       0.99999999999999978        1.7347234759768051E-016
 Normal =   0.0000000000000000       0.99999999999999978        0.0000000000000000     
 Normal =   0.0000000000000000       0.99999999999999978        1.7347234759768051E-016
 Normal =   0.0000000000000000       0.99999999999999978        0.0000000000000000     
 Beta =    0.0000000000000000        0.0000000000000000        0.0000000000000000        0.0000000000000000     
 Normal =   0.0000000000000000        1.0000000000000000        1.7347234759768081E-016
 Normal =   0.0000000000000000       0.99999999999999978        0.0000000000000000     
 Normal =   0.0000000000000000        1.0000000000000000        1.7347234759768081E-016
 Normal =   0.0000000000000000       0.99999999999999978        0.0000000000000000     
 Beta =    0.0000000000000000        0.0000000000000000        0.0000000000000000        0.0000000000000000     
 Normal =   0.0000000000000000        1.0000000000000000        1.7347234759768081E-016
 Normal =   0.0000000000000000       0.99999999999999978        0.0000000000000000     
 Normal =   0.0000000000000000        1.0000000000000000        1.7347234759768081E-016
 Normal =   0.0000000000000000       0.99999999999999978        0.0000000000000000     
 Beta =    0.0000000000000000        0.0000000000000000        0.0000000000000000        0.0000000000000000     
 Normal =   0.0000000000000000        1.0000000000000000        1.7347234759768128E-016
 Normal =   0.0000000000000000        1.0000000000000000        0.0000000000000000     
 Normal =   0.0000000000000000        1.0000000000000000        1.7347234759768128E-016
 Normal =   0.0000000000000000        1.0000000000000000        0.0000000000000000     
 Beta =    0.0000000000000000        0.0000000000000000        0.0000000000000000        0.0000000000000000     
 Normal =   0.0000000000000000        1.0000000000000000        1.7347234759768032E-016
 Normal =   0.0000000000000000       0.99999999999999978        0.0000000000000000     
 Normal =   0.0000000000000000        1.0000000000000000        1.7347234759768032E-016
 Normal =   0.0000000000000000       0.99999999999999978        0.0000000000000000     
 Beta =    0.0000000000000000        0.0000000000000000        0.0000000000000000        0.0000000000000000     
 Normal =   0.0000000000000000       0.99999999999999978        1.7347234759768051E-016
 Normal =   0.0000000000000000       0.99999999999999978        0.0000000000000000     
 Normal =   0.0000000000000000       0.99999999999999978        1.7347234759768051E-016
 Normal =   0.0000000000000000       0.99999999999999978        0.0000000000000000     
 Beta =    0.0000000000000000        0.0000000000000000        0.0000000000000000        0.0000000000000000     
 Normal =   0.0000000000000000       0.99999999999999978        1.7347234759768051E-016
 Normal =   0.0000000000000000       0.99999999999999978        0.0000000000000000     
 Normal =   0.0000000000000000       0.99999999999999978        1.7347234759768051E-016
 Normal =   0.0000000000000000       0.99999999999999978        0.0000000000000000     
 Beta =    0.0000000000000000        0.0000000000000000        0.0000000000000000        0.0000000000000000     
 Normal =   0.0000000000000000        1.0000000000000000        1.7347234759768081E-016
 Normal =   0.0000000000000000       0.99999999999999978        0.0000000000000000     
 Normal =   0.0000000000000000        1.0000000000000000        1.7347234759768081E-016
 Normal =   0.0000000000000000       0.99999999999999978        0.0000000000000000     
 Beta =    0.0000000000000000        0.0000000000000000        0.0000000000000000        0.0000000000000000     
 Normal =   0.0000000000000000        1.0000000000000000        1.7347234759768081E-016
 Normal =   0.0000000000000000       0.99999999999999978        0.0000000000000000     
 Normal =   0.0000000000000000        1.0000000000000000        1.7347234759768081E-016
 Normal =   0.0000000000000000       0.99999999999999978        0.0000000000000000     
 Beta =    0.0000000000000000        0.0000000000000000        0.0000000000000000        0.0000000000000000     
 Normal =   0.0000000000000000        1.0000000000000000        1.7347234759768105E-016
 Normal =   0.0000000000000000        1.0000000000000000        0.0000000000000000     
 Normal =   0.0000000000000000        1.0000000000000000        1.7347234759768105E-016
 Normal =   0.0000000000000000        1.0000000000000000        0.0000000000000000     
 Beta =    0.0000000000000000        0.0000000000000000        0.0000000000000000        0.0000000000000000     
 Normal =   0.0000000000000000        1.0000000000000000        1.7347234759768032E-016
 Normal =   0.0000000000000000       0.99999999999999978        0.0000000000000000     
 Normal =   0.0000000000000000        1.0000000000000000        1.7347234759768032E-016
 Normal =   0.0000000000000000       0.99999999999999978        0.0000000000000000     
 Beta =    0.0000000000000000        0.0000000000000000        0.0000000000000000        0.0000000000000000     
 Normal =   0.0000000000000000        1.0000000000000000        1.7347234759768032E-016
 Normal =   0.0000000000000000       0.99999999999999978        0.0000000000000000     
 Normal =   0.0000000000000000        1.0000000000000000        1.7347234759768032E-016
 Normal =   0.0000000000000000       0.99999999999999978        0.0000000000000000     
 Beta =    0.0000000000000000        0.0000000000000000        0.0000000000000000        0.0000000000000000     
 Normal =   0.0000000000000000       0.99999999999999978        1.7347234759768051E-016
 Normal =   0.0000000000000000       0.99999999999999978        0.0000000000000000     
 Normal =   0.0000000000000000       0.99999999999999978        1.7347234759768051E-016
 Normal =   0.0000000000000000       0.99999999999999978        0.0000000000000000     
 Beta =    0.0000000000000000        0.0000000000000000        0.0000000000000000        0.0000000000000000     
 Beta =    0.0000000000000000        0.0000000000000000        0.0000000000000000        0.0000000000000000     
 Beta =    0.0000000000000000        0.0000000000000000        0.0000000000000000        0.0000000000000000     
 Beta =    0.0000000000000000        0.0000000000000000        0.0000000000000000        0.0000000000000000     
 Beta =    0.0000000000000000        0.0000000000000000        0.0000000000000000        0.0000000000000000     
 Beta =    0.0000000000000000        0.0000000000000000        0.0000000000000000        0.0000000000000000     
 Beta =    0.0000000000000000        0.0000000000000000        0.0000000000000000        0.0000000000000000     
 Beta =    0.0000000000000000        0.0000000000000000        0.0000000000000000        0.0000000000000000     
 Beta =    0.0000000000000000        0.0000000000000000        0.0000000000000000        0.0000000000000000     
 Beta =    0.0000000000000000        0.0000000000000000        0.0000000000000000        0.0000000000000000     
 Beta =    0.0000000000000000        0.0000000000000000        0.0000000000000000        0.0000000000000000     
 Beta =    0.0000000000000000        0.0000000000000000        0.0000000000000000        0.0000000000000000     
 Beta =    0.0000000000000000        0.0000000000000000        0.0000000000000000        0.0000000000000000     
 Beta =    0.0000000000000000        0.0000000000000000        0.0000000000000000        0.0000000000000000     
 Beta =    0.0000000000000000        0.0000000000000000        0.0000000000000000        0.0000000000000000     
 Beta =    0.0000000000000000        0.0000000000000000        0.0000000000000000        0.0000000000000000     
 Beta =    0.0000000000000000        0.0000000000000000        0.0000000000000000        0.0000000000000000     
 Beta =    0.0000000000000000        0.0000000000000000        0.0000000000000000        0.0000000000000000     
 Beta =    0.0000000000000000        0.0000000000000000        0.0000000000000000        0.0000000000000000     
 Beta =    0.0000000000000000        0.0000000000000000        0.0000000000000000        0.0000000000000000     
 Beta =    0.0000000000000000        0.0000000000000000        0.0000000000000000        0.0000000000000000     
 Beta =    0.0000000000000000        0.0000000000000000        0.0000000000000000        0.0000000000000000     
 Beta =    0.0000000000000000        0.0000000000000000        0.0000000000000000        0.0000000000000000     
 Beta =    0.0000000000000000        0.0000000000000000        0.0000000000000000        0.0000000000000000     
 Beta =    0.0000000000000000        0.0000000000000000        0.0000000000000000        0.0000000000000000     
 Beta =    0.0000000000000000        0.0000000000000000        0.0000000000000000        0.0000000000000000     
 Beta =    0.0000000000000000        0.0000000000000000        0.0000000000000000        0.0000000000000000     
 Beta =    0.0000000000000000        0.0000000000000000        0.0000000000000000        0.0000000000000000     
 Beta =    0.0000000000000000        0.0000000000000000        0.0000000000000000        0.0000000000000000     
 Beta =    0.0000000000000000        0.0000000000000000        0.0000000000000000        0.0000000000000000     
 Beta =    0.0000000000000000        0.0000000000000000        0.0000000000000000        0.0000000000000000     
 Beta =    0.0000000000000000        0.0000000000000000        0.0000000000000000        0.0000000000000000     
 Beta =    0.0000000000000000        0.0000000000000000        0.0000000000000000        0.0000000000000000     
 Beta =    0.0000000000000000        0.0000000000000000        0.0000000000000000        0.0000000000000000     
 Beta =    0.0000000000000000        0.0000000000000000        0.0000000000000000        0.0000000000000000     
 Beta =    0.0000000000000000        0.0000000000000000        0.0000000000000000        0.0000000000000000     
 Beta =    0.0000000000000000        0.0000000000000000        0.0000000000000000        0.0000000000000000     
 Beta =    0.0000000000000000        0.0000000000000000        0.0000000000000000        0.0000000000000000     
 Beta =    0.0000000000000000        0.0000000000000000        0.0000000000000000        0.0000000000000000     
 Beta =    0.0000000000000000        0.0000000000000000        0.0000000000000000        0.0000000000000000     
 Beta =    0.0000000000000000        0.0000000000000000        0.0000000000000000        0.0000000000000000     
 Beta =    0.0000000000000000        0.0000000000000000        0.0000000000000000        0.0000000000000000     
 Beta =    0.0000000000000000        0.0000000000000000        0.0000000000000000        0.0000000000000000     
 Beta =    0.0000000000000000        0.0000000000000000        0.0000000000000000        0.0000000000000000     
 Beta =    0.0000000000000000        0.0000000000000000        0.0000000000000000        0.0000000000000000     
 Beta =    0.0000000000000000        0.0000000000000000        0.0000000000000000        0.0000000000000000     
 Beta =    0.0000000000000000        0.0000000000000000        0.0000000000000000        0.0000000000000000     
 Beta =    0.0000000000000000        0.0000000000000000        0.0000000000000000        0.0000000000000000     
 Beta =    0.0000000000000000        0.0000000000000000        0.0000000000000000        0.0000000000000000     
 Beta =    0.0000000000000000        0.0000000000000000        0.0000000000000000        0.0000000000000000     
 Beta =    0.0000000000000000        0.0000000000000000        0.0000000000000000        0.0000000000000000     
 Beta =    0.0000000000000000        0.0000000000000000        0.0000000000000000        0.0000000000000000     
 Beta =    0.0000000000000000        0.0000000000000000        0.0000000000000000        0.0000000000000000     
 Beta =    0.0000000000000000        0.0000000000000000        0.0000000000000000        0.0000000000000000     
 Beta =    0.0000000000000000        0.0000000000000000        0.0000000000000000        0.0000000000000000     
 Beta =    0.0000000000000000        0.0000000000000000        0.0000000000000000        0.0000000000000000     
 Beta =    0.0000000000000000        0.0000000000000000        0.0000000000000000        0.0000000000000000     
 Beta =    0.0000000000000000        0.0000000000000000        0.0000000000000000        0.0000000000000000     
 Beta =    0.0000000000000000        0.0000000000000000        0.0000000000000000        0.0000000000000000     
 Beta =    0.0000000000000000        0.0000000000000000        0.0000000000000000        0.0000000000000000     
 Beta =    0.0000000000000000        0.0000000000000000        0.0000000000000000        0.0000000000000000     
 Beta =    0.0000000000000000        0.0000000000000000        0.0000000000000000        0.0000000000000000     
 Beta =    0.0000000000000000        0.0000000000000000        0.0000000000000000        0.0000000000000000     
 Beta =    0.0000000000000000        0.0000000000000000        0.0000000000000000        0.0000000000000000     
 Beta =    0.0000000000000000        0.0000000000000000        0.0000000000000000        0.0000000000000000     
 Beta =    0.0000000000000000        0.0000000000000000        0.0000000000000000        0.0000000000000000     
 Beta =    0.0000000000000000        0.0000000000000000        0.0000000000000000        0.0000000000000000     
 Beta =    0.0000000000000000        0.0000000000000000        0.0000000000000000        0.0000000000000000     
 Beta =    0.0000000000000000        0.0000000000000000        0.0000000000000000        0.0000000000000000     
 Beta =    0.0000000000000000        0.0000000000000000        0.0000000000000000        0.0000000000000000     
 Beta =    0.0000000000000000        0.0000000000000000        0.0000000000000000        0.0000000000000000     
 Beta =    0.0000000000000000        0.0000000000000000        0.0000000000000000        0.0000000000000000     
 Beta =    0.0000000000000000        0.0000000000000000        0.0000000000000000        0.0000000000000000     
 Beta =    0.0000000000000000        0.0000000000000000        0.0000000000000000        0.0000000000000000     
 Beta =    0.0000000000000000        0.0000000000000000        0.0000000000000000        0.0000000000000000     
 Beta =    0.0000000000000000        0.0000000000000000        0.0000000000000000        0.0000000000000000     
 Beta =    0.0000000000000000        0.0000000000000000        0.0000000000000000        0.0000000000000000     
 Beta =    0.0000000000000000        0.0000000000000000        0.0000000000000000        0.0000000000000000     
 Beta =    0.0000000000000000        0.0000000000000000        0.0000000000000000        0.0000000000000000     
 Beta =    0.0000000000000000        0.0000000000000000        0.0000000000000000        0.0000000000000000     
 Beta =    0.0000000000000000        0.0000000000000000        0.0000000000000000        0.0000000000000000     
 Beta =    0.0000000000000000        0.0000000000000000        0.0000000000000000        0.0000000000000000     
 Beta =    0.0000000000000000        0.0000000000000000        0.0000000000000000        0.0000000000000000     
 Beta =    0.0000000000000000        0.0000000000000000        0.0000000000000000        0.0000000000000000     
 Beta =    0.0000000000000000        0.0000000000000000        0.0000000000000000        0.0000000000000000     
 Beta =    0.0000000000000000        0.0000000000000000        0.0000000000000000        0.0000000000000000     
 Beta =    0.0000000000000000        0.0000000000000000        0.0000000000000000        0.0000000000000000     
 Beta =    0.0000000000000000        0.0000000000000000        0.0000000000000000        0.0000000000000000     
 Beta =    0.0000000000000000        0.0000000000000000        0.0000000000000000        0.0000000000000000     
 Beta =    0.0000000000000000        0.0000000000000000        0.0000000000000000        0.0000000000000000     
 Beta =    0.0000000000000000        0.0000000000000000        0.0000000000000000        0.0000000000000000     
 Beta =    0.0000000000000000        0.0000000000000000        0.0000000000000000        0.0000000000000000     
 Beta =    0.0000000000000000        0.0000000000000000        0.0000000000000000        0.0000000000000000     
 Beta =    0.0000000000000000        0.0000000000000000        0.0000000000000000        0.0000000000000000     
 Beta =    0.0000000000000000        0.0000000000000000        0.0000000000000000        0.0000000000000000     
 Beta =    0.0000000000000000        0.0000000000000000        0.0000000000000000        0.0000000000000000     
 Beta =    0.0000000000000000        0.0000000000000000        0.0000000000000000        0.0000000000000000     
 Beta =    0.0000000000000000        0.0000000000000000        0.0000000000000000        0.0000000000000000     
 Beta =    0.0000000000000000        0.0000000000000000        0.0000000000000000        0.0000000000000000     
 Beta =    0.0000000000000000        0.0000000000000000        0.0000000000000000        0.0000000000000000     
 Beta =    0.0000000000000000        0.0000000000000000        0.0000000000000000        0.0000000000000000     
 Beta =    0.0000000000000000        0.0000000000000000        0.0000000000000000        0.0000000000000000     
 Beta =    0.0000000000000000        0.0000000000000000        0.0000000000000000        0.0000000000000000     
 Beta =    0.0000000000000000        0.0000000000000000        0.0000000000000000        0.0000000000000000     
 Beta =    0.0000000000000000        0.0000000000000000        0.0000000000000000        0.0000000000000000     
 Beta =    0.0000000000000000        0.0000000000000000        0.0000000000000000        0.0000000000000000     
 Beta =    0.0000000000000000        0.0000000000000000        0.0000000000000000        0.0000000000000000     
 Beta =    0.0000000000000000        0.0000000000000000        0.0000000000000000        0.0000000000000000     
 Beta =    0.0000000000000000        0.0000000000000000        0.0000000000000000        0.0000000000000000     
 Beta =    0.0000000000000000        0.0000000000000000        0.0000000000000000        0.0000000000000000     
 Beta =    0.0000000000000000        0.0000000000000000        0.0000000000000000        0.0000000000000000     
 Beta =    0.0000000000000000        0.0000000000000000        0.0000000000000000        0.0000000000000000     
 Beta =    0.0000000000000000        0.0000000000000000        0.0000000000000000        0.0000000000000000     
 Beta =    0.0000000000000000        0.0000000000000000        0.0000000000000000        0.0000000000000000     
 Beta =    0.0000000000000000        0.0000000000000000        0.0000000000000000        0.0000000000000000     
 Beta =    0.0000000000000000        0.0000000000000000        0.0000000000000000        0.0000000000000000     
 Beta =    0.0000000000000000        0.0000000000000000        0.0000000000000000        0.0000000000000000     
 Beta =    0.0000000000000000        0.0000000000000000        0.0000000000000000        0.0000000000000000     
 Beta =    0.0000000000000000        0.0000000000000000        0.0000000000000000        0.0000000000000000     
 Beta =    0.0000000000000000        0.0000000000000000        0.0000000000000000        0.0000000000000000     
 Beta =    0.0000000000000000        0.0000000000000000        0.0000000000000000        0.0000000000000000     
 Beta =    0.0000000000000000        0.0000000000000000        0.0000000000000000        0.0000000000000000     
 Beta =    0.0000000000000000        0.0000000000000000        0.0000000000000000        0.0000000000000000     
 Beta =    0.0000000000000000        0.0000000000000000        0.0000000000000000        0.0000000000000000     
 Beta =    0.0000000000000000        0.0000000000000000        0.0000000000000000        0.0000000000000000     
 Beta =    0.0000000000000000        0.0000000000000000        0.0000000000000000        0.0000000000000000     
 Beta =    0.0000000000000000        0.0000000000000000        0.0000000000000000        0.0000000000000000     
 Beta =    0.0000000000000000        0.0000000000000000        0.0000000000000000        0.0000000000000000     
 Beta =    0.0000000000000000        0.0000000000000000        0.0000000000000000        0.0000000000000000     
 Beta =    0.0000000000000000        0.0000000000000000        0.0000000000000000        0.0000000000000000     
 Beta =    0.0000000000000000        0.0000000000000000        0.0000000000000000        0.0000000000000000     
 Beta =    0.0000000000000000        0.0000000000000000        0.0000000000000000        0.0000000000000000     
 Beta =    0.0000000000000000        0.0000000000000000        0.0000000000000000        0.0000000000000000     
 Beta =    0.0000000000000000        0.0000000000000000        0.0000000000000000        0.0000000000000000     
 Beta =    0.0000000000000000        0.0000000000000000        0.0000000000000000        0.0000000000000000     
 Beta =    0.0000000000000000        0.0000000000000000        0.0000000000000000        0.0000000000000000     
 Beta =    0.0000000000000000        0.0000000000000000        0.0000000000000000        0.0000000000000000     
 Beta =    0.0000000000000000        0.0000000000000000        0.0000000000000000        0.0000000000000000     
 Beta =    0.0000000000000000        0.0000000000000000        0.0000000000000000        0.0000000000000000     
 Beta =    0.0000000000000000        0.0000000000000000        0.0000000000000000        0.0000000000000000     
 Beta =    0.0000000000000000        0.0000000000000000        0.0000000000000000        0.0000000000000000     
 Beta =    0.0000000000000000        0.0000000000000000        0.0000000000000000        0.0000000000000000     
 Beta =    0.0000000000000000        0.0000000000000000        0.0000000000000000        0.0000000000000000     
 Beta =    0.0000000000000000        0.0000000000000000        0.0000000000000000        0.0000000000000000     
 Beta =    0.0000000000000000        0.0000000000000000        0.0000000000000000        0.0000000000000000     
 Beta =    0.0000000000000000        0.0000000000000000        0.0000000000000000        0.0000000000000000     
 Beta =    0.0000000000000000        0.0000000000000000        0.0000000000000000        0.0000000000000000     
 Beta =    0.0000000000000000        0.0000000000000000        0.0000000000000000        0.0000000000000000     
 Beta =    0.0000000000000000        0.0000000000000000        0.0000000000000000        0.0000000000000000     
 Beta =    0.0000000000000000        0.0000000000000000        0.0000000000000000        0.0000000000000000     
 Beta =    0.0000000000000000        0.0000000000000000        0.0000000000000000        0.0000000000000000     
 Beta =    0.0000000000000000        0.0000000000000000        0.0000000000000000        0.0000000000000000     
 Beta =    0.0000000000000000        0.0000000000000000        0.0000000000000000        0.0000000000000000     
DefUtils::DefaultDirichletBCs: Setting Dirichlet boundary conditions
DefUtils::DefaultDirichletBCs: Dirichlet boundary conditions set
       1 0.4608E+00
       2 0.4190E+00
       3 0.4271E+00
       4 0.3656E+00
       5 0.2934E+00
       6 0.2531E+00
       7 0.2107E+00
       8 0.1727E+00
       9 0.1460E+00
      10 0.1212E+00
      11 0.1047E+00
      12 0.8681E-01
      13 0.7494E-01
      14 0.6351E-01
      15 0.5317E-01
      16 0.4383E-01
      17 0.3504E-01
      18 0.2831E-01
      19 0.2288E-01
      20 0.1901E-01
      21 0.1692E-01
      22 0.1518E-01
      23 0.1357E-01
      24 0.1225E-01
      25 0.1096E-01
      26 0.9834E-02
      27 0.8735E-02
      28 0.7880E-02
      29 0.7025E-02
      30 0.6282E-02
      31 0.5579E-02
      32 0.5000E-02
      33 0.4324E-02
      34 0.3778E-02
      35 0.3250E-02
      36 0.2843E-02
      37 0.2599E-02
      38 0.2406E-02
      39 0.2242E-02
      40 0.2107E-02
      41 0.1968E-02
      42 0.1857E-02
      43 0.1746E-02
      44 0.1633E-02
      45 0.1547E-02
      46 0.1464E-02
      47 0.1402E-02
      48 0.1334E-02
      49 0.1278E-02
      50 0.1213E-02
      51 0.1155E-02
      52 0.1078E-02
      53 0.1010E-02
      54 0.9454E-03
      55 0.8705E-03
      56 0.8007E-03
      57 0.7377E-03
      58 0.6704E-03
      59 0.6127E-03
      60 0.5610E-03
      61 0.5227E-03
      62 0.4792E-03
      63 0.4378E-03
      64 0.3809E-03
      65 0.3524E-03
      66 0.3126E-03
      67 0.2548E-03
      68 0.1851E-03
      69 0.1606E-03
      70 0.1325E-03
      71 0.1159E-03
      72 0.7533E-04
      73 0.5105E-04
      74 0.4317E-04
      75 0.4354E-04
      76 0.2621E-04
      77 0.2883E-04
      78 0.2264E-04
      79 0.1793E-04
      80 0.1892E-04
      81 0.1103E-04
      82 0.1113E-04
      83 0.9497E-05
      84 0.7772E-05
      85 0.6698E-05
      86 0.5650E-05
      87 0.4924E-05
      88 0.4168E-05
      89 0.3668E-05
      90 0.3109E-05
      91 0.2753E-05
      92 0.2497E-05
      93 0.2178E-05
      94 0.1546E-05
      95 0.1409E-05
      96 0.1809E-05
      97 0.8863E-06
      97 0.8863E-06
ComputeChange: NS (ITER=1) (NRM,RELC): ( 0.71265582E-07  2.0000000     ) :: nonlinear elasticity
ElasticSolve: Computing postprocessing fields
OptimizeBandwidth: ---------------------------------------------------------
OptimizeBandwidth: Computing matrix structure for: calculate stresses...done.
OptimizeBandwidth: Half bandwidth without optimization: 12
OptimizeBandwidth: 
OptimizeBandwidth: Bandwidth Optimization ...done.
OptimizeBandwidth: Half bandwidth after optimization: 16
OptimizeBandwidth: Bandwidth optimization rejected, using original ordering.
OptimizeBandwidth: ---------------------------------------------------------
ElasticSolve: Stress Component 11
       1 0.4014E-01
       2 0.6731E-02
       3 0.8416E-03
       4 0.3134E-03
       5 0.1125E-03
       6 0.3974E-04
       7 0.1582E-04
       8 0.5643E-05
       9 0.1954E-05
      10 0.7521E-06
      10 0.7521E-06
ComputeStressAndStrain: Solution Norm: 0.21852912
ElasticSolve: Stress Component 22
       1 0.3076E-01
       2 0.4620E-02
       3 0.6013E-03
       4 0.2268E-03
       5 0.9055E-04
       6 0.3339E-04
       7 0.1299E-04
       8 0.4718E-05
       9 0.1723E-05
      10 0.6907E-06
      10 0.6907E-06
ComputeStressAndStrain: Solution Norm: 0.31108426
ElasticSolve: Stress Component 33
       1 0.5253E-01
       2 0.9690E-02
       3 0.1140E-02
       4 0.4474E-03
       5 0.1494E-03
       6 0.5472E-04
       7 0.2177E-04
       8 0.6790E-05
       9 0.2148E-05
      10 0.8052E-06
      10 0.8052E-06
ComputeStressAndStrain: Solution Norm: 0.26209714
ElasticSolve: Stress Component 12
       1 0.7842E-01
       2 0.2292E-01
       3 0.7726E-02
       4 0.3010E-02
       5 0.1315E-02
       6 0.5460E-03
       7 0.2549E-03
       8 0.1228E-03
       9 0.8150E-04
      10 0.5849E-04
      11 0.4281E-04
      12 0.2879E-04
      13 0.1708E-04
      14 0.9740E-05
      15 0.5540E-05
      16 0.3424E-05
      17 0.2182E-05
      18 0.1428E-05
      19 0.8258E-06
      19 0.8258E-06
ComputeStressAndStrain: Solution Norm: 0.83775652E-15
ElasticSolve: Stress Component 23
       1 0.2362E-01
       2 0.4513E-02
       3 0.1043E-02
       4 0.2545E-03
       5 0.6707E-04
       6 0.1647E-04
       7 0.4631E-05
       8 0.1452E-05
       9 0.4872E-06
       9 0.4872E-06
ComputeStressAndStrain: Solution Norm: 0.98518588E-01
ElasticSolve: Stress Component 13
       1 0.1992E-01
       2 0.4416E-02
       3 0.1198E-02
       4 0.5307E-03
       5 0.2245E-03
       6 0.7317E-04
       7 0.2377E-04
       8 0.8370E-05
       9 0.3491E-05
      10 0.2369E-05
      11 0.1728E-05
      12 0.1263E-05
      13 0.8662E-06
      13 0.8662E-06
ComputeStressAndStrain: Solution Norm: 0.92714099E-15
ElasticSolve: Displacing the mesh with computed displacement field
ElasticSolver: All done
ElasticSolver: ------------------------------------------
SingleSolver: Attempting to call solver
SingleSolver: Solver Equation string is: internalvtuoutputsolver
ResultOutputSolver: -------------------------------------
ResultOutputSolve: Saving with prefix: case
ResultOutputSolver: Dimension of mesh: 3
ResultOutputSolver: Creating list for saving - if not present
CreateListForSaving: Field Variables for Saving
CreateListForSaving: Scalar Field 1: stress_xx
CreateListForSaving: Scalar Field 2: stress_yy
CreateListForSaving: Scalar Field 3: stress_zz
CreateListForSaving: Scalar Field 4: stress_xy
CreateListForSaving: Scalar Field 5: stress_yz
CreateListForSaving: Scalar Field 6: stress_xz
CreateListForSaving: Scalar Field 7: vonmises
CreateListForSaving: Vector Field 1: displacement
ResultOutputSolver: Saving in unstructured VTK XML (.vtu) format
VtuOutputSolver: Saving results in VTK XML format with prefix: case
VtuOutputSolver: Saving number of partitions: 1
VtuOutputSolver: Number of nodes to save:     408
VtuOutputSolver: Number of elements to save:     556
WriteVtuFile: Writing body and BC indexes
ResultOutputSolver: -------------------------------------
 SolverModule:UpdateDisplacements: Reporting displacements to the fluid solver
 SolverModule:Run: runs =            1
 SolverModule:Run: CurrentModel%GetTestLoads =  F
 SolverModule:Run: CurrentModel%UDFUsed =  T
ElmerFoamDriver:Run: Converged at time(0.002)
ElmerFoamDriver:Run: System timestep 2 @ Time = 0.002
ElmerFoamDriver:Run: Transferring displacements from structures to fluids @ time(0.002)
ElmerFoamDriver:TransferDisplacementsToFluid: Solid displacements for node 0: 
1.96548e-27 -1.49067e-07 -2.95378e-08
ElmerFoamDriver:TransferDisplacementsToFluid: Fluid displacements for node 0: 
1.96548e-27 -1.49067e-07 -2.95378e-08
ElmerFoamDriver:Run: Stepping fluids to time(0.004)
FsiFoam:StepFluid: Stepping fluid solver...
FsiFoam:StepFluid: Time = 0.001
FsiFoam:ReadFSIControl: Selecting coupling scheme Aitken
FsiFoam:ReadFSIControl: outerCorrTolerance = 0.0001
FsiFoam:ReadFSIControl: FSI IS ENABLED.
FsiFoam:StepFluidNonItr: outerCorr = 1
FsiFoam:StepFluidNonItr: Time = 0.002, iteration: 1
FsiFoam:UpdateFSISurface: Reporting solid displacements to the fluid solver
FsiFoam:StepFluidNonItr: Maximal accumulated displacement of interface points: 1.65631e-05
FsiFoam:StepFluidNonItr: Moving only interface...Compensating for mesh movment !
FsiFoam:StepFluidNonItr: Courant Number mean: 3.12251e-09 max: 2.45733e-05 velocity magnitude: 0.000221161
DILUPBiCG:  Solving for Uy, Initial residual = 0.313091, Final residual = 4.82466e-12, No Iterations 2
DILUPBiCG:  Solving for Uz, Initial residual = 0.333344, Final residual = 3.99082e-12, No Iterations 2
GAMG:  Solving for p, Initial residual = 0.756841, Final residual = 0.384693, No Iterations 1000
GAMG:  Solving for p, Initial residual = 0.342858, Final residual = 0.362193, No Iterations 1000
FsiFoam:StepFluidNonItr: time step continuity errors : sum local = 7.00594e-19, global = -6.79132e-20, cumulative = -1.49831e-19
GAMG:  Solving for p, Initial residual = 0.347085, Final residual = 0.311977, No Iterations 1000
GAMG:  Solving for p, Initial residual = 0.331901, Final residual = 0.33657, No Iterations 1000
FsiFoam:StepFluidNonItr: time step continuity errors : sum local = 7.11264e-19, global = -8.32727e-20, cumulative = -2.33103e-19
FsiFoam:StepFluid: ExecutionTime = 3.58 s  ClockTime = 3 s
FsiFoam:UpdateFSISurface: Reporting surface loads to the solid solver 
ElmerFoamDriver:TransferLoadsToStructures: Transfering loads to the structures solver.
ElmerFoamDriver:Run: Stepping structures to time(0.004)
 MyTimeModule:MyTimeStepper: Timesteps(interval) =            0
 MyTimeModule:MyTimeStepper: Timesteps(interval) =            1
MAIN: 
MAIN: -------------------------------------
MAIN:  Time: 1/2   2.0000000000000000E-003
MAIN: -------------------------------------
MAIN: 
 MyTimeModule:UpdateLoads: Updating loads on the structure
 MyTimeModule:UpdateLoads: Time Step Summary 
     sTime(1)     =    2.0000000000000000E-003
     PreviousTime =    2.0000000000000000E-003
     FinalTime    =    4.0000000000000001E-003
 MyTimeModule:UpdateLoads: Finishing
 MyTimeModule:MyTimeStepper: Calling SolveEquations
    Transient =  T
SingleSolver: Attempting to call solver
SingleSolver: Solver Equation string is: nonlinear elasticity
ElasticSolve: 
ElasticSolve: 
ElasticSolve: -------------------------------------
ElasticSolve:  ELASTICITY ITERATION              1
ElasticSolve: -------------------------------------
ElasticSolve: 
ElasticSolve: Starting assembly...
 Beta =    0.0000000000000000        0.0000000000000000        0.0000000000000000        0.0000000000000000     
 Beta =    0.0000000000000000        0.0000000000000000        0.0000000000000000        0.0000000000000000     
 Beta =    0.0000000000000000        0.0000000000000000        0.0000000000000000        0.0000000000000000     
 Beta =    0.0000000000000000        0.0000000000000000        0.0000000000000000        0.0000000000000000     
 Beta =    0.0000000000000000        0.0000000000000000        0.0000000000000000        0.0000000000000000     
 Beta =    0.0000000000000000        0.0000000000000000        0.0000000000000000        0.0000000000000000     
 Beta =    0.0000000000000000        0.0000000000000000        0.0000000000000000        0.0000000000000000     
 Beta =    0.0000000000000000        0.0000000000000000        0.0000000000000000        0.0000000000000000     
 Beta =    0.0000000000000000        0.0000000000000000        0.0000000000000000        0.0000000000000000     
 Beta =    0.0000000000000000        0.0000000000000000        0.0000000000000000        0.0000000000000000     
 Beta =    0.0000000000000000        0.0000000000000000        0.0000000000000000        0.0000000000000000     
 Beta =    0.0000000000000000        0.0000000000000000        0.0000000000000000        0.0000000000000000     
 Beta =    0.0000000000000000        0.0000000000000000        0.0000000000000000        0.0000000000000000     
 Beta =    0.0000000000000000        0.0000000000000000        0.0000000000000000        0.0000000000000000     
 Beta =    0.0000000000000000        0.0000000000000000        0.0000000000000000        0.0000000000000000     
 Beta =    0.0000000000000000        0.0000000000000000        0.0000000000000000        0.0000000000000000     
 Beta =    0.0000000000000000        0.0000000000000000        0.0000000000000000        0.0000000000000000     
 Beta =    0.0000000000000000        0.0000000000000000        0.0000000000000000        0.0000000000000000     
 Beta =    0.0000000000000000        0.0000000000000000        0.0000000000000000        0.0000000000000000     
 Beta =    0.0000000000000000        0.0000000000000000        0.0000000000000000        0.0000000000000000     
 Beta =    0.0000000000000000        0.0000000000000000        0.0000000000000000        0.0000000000000000     
 Beta =    0.0000000000000000        0.0000000000000000        0.0000000000000000        0.0000000000000000     
 Beta =    0.0000000000000000        0.0000000000000000        0.0000000000000000        0.0000000000000000     
 Beta =    0.0000000000000000        0.0000000000000000        0.0000000000000000        0.0000000000000000     
 Beta =    0.0000000000000000        0.0000000000000000        0.0000000000000000        0.0000000000000000     
 Beta =    0.0000000000000000        0.0000000000000000        0.0000000000000000        0.0000000000000000     
 Beta =    0.0000000000000000        0.0000000000000000        0.0000000000000000        0.0000000000000000     
[...]
 Beta =    0.0000000000000000        0.0000000000000000        0.0000000000000000        0.0000000000000000     
 Beta =    0.0000000000000000        0.0000000000000000        0.0000000000000000        0.0000000000000000     
 Beta =    0.0000000000000000        0.0000000000000000        0.0000000000000000        0.0000000000000000     
 Beta =    0.0000000000000000        0.0000000000000000        0.0000000000000000        0.0000000000000000     
 Beta =    0.0000000000000000        0.0000000000000000        0.0000000000000000        0.0000000000000000     
 Beta =    0.0000000000000000        0.0000000000000000        0.0000000000000000        0.0000000000000000     
 Beta =    0.0000000000000000        0.0000000000000000        0.0000000000000000        0.0000000000000000     
 Beta =    0.0000000000000000        0.0000000000000000        0.0000000000000000        0.0000000000000000     
 Beta =    0.0000000000000000        0.0000000000000000        0.0000000000000000        0.0000000000000000     
 Beta =    0.0000000000000000        0.0000000000000000        0.0000000000000000        0.0000000000000000     
 Beta =    0.0000000000000000        0.0000000000000000        0.0000000000000000        0.0000000000000000     
 Beta =    0.0000000000000000        0.0000000000000000        0.0000000000000000        0.0000000000000000     
 Beta =    0.0000000000000000        0.0000000000000000        0.0000000000000000        0.0000000000000000     
 Beta =    0.0000000000000000        0.0000000000000000        0.0000000000000000        0.0000000000000000     
 Beta =    0.0000000000000000        0.0000000000000000        0.0000000000000000        0.0000000000000000     
 Beta =    0.0000000000000000        0.0000000000000000        0.0000000000000000        0.0000000000000000     
 Beta =    0.0000000000000000        0.0000000000000000        0.0000000000000000        0.0000000000000000     
 Beta =    0.0000000000000000        0.0000000000000000        0.0000000000000000        0.0000000000000000     
 Beta =    0.0000000000000000        0.0000000000000000        0.0000000000000000        0.0000000000000000     
 Beta =    0.0000000000000000        0.0000000000000000        0.0000000000000000        0.0000000000000000     
 Beta =    0.0000000000000000        0.0000000000000000        0.0000000000000000        0.0000000000000000     
 Beta =    0.0000000000000000        0.0000000000000000        0.0000000000000000        0.0000000000000000     
 Beta =    0.0000000000000000        0.0000000000000000        0.0000000000000000        0.0000000000000000     
 Beta =    0.0000000000000000        0.0000000000000000        0.0000000000000000        0.0000000000000000     
 Beta =    0.0000000000000000        0.0000000000000000        0.0000000000000000        0.0000000000000000     
 Beta =    0.0000000000000000        0.0000000000000000        0.0000000000000000        0.0000000000000000     
 Beta =    0.0000000000000000        0.0000000000000000        0.0000000000000000        0.0000000000000000     
 Beta =    0.0000000000000000        0.0000000000000000        0.0000000000000000        0.0000000000000000     
 Beta =    0.0000000000000000        0.0000000000000000        0.0000000000000000        0.0000000000000000     
 Beta =    0.0000000000000000        0.0000000000000000        0.0000000000000000        0.0000000000000000     
 Beta =    0.0000000000000000        0.0000000000000000        0.0000000000000000        0.0000000000000000     
 Beta =    0.0000000000000000        0.0000000000000000        0.0000000000000000        0.0000000000000000     
 Beta =    0.0000000000000000        0.0000000000000000        0.0000000000000000        0.0000000000000000     
 Beta =    0.0000000000000000        0.0000000000000000        0.0000000000000000        0.0000000000000000     
 Beta =    0.0000000000000000        0.0000000000000000        0.0000000000000000        0.0000000000000000     
 Beta =    0.0000000000000000        0.0000000000000000        0.0000000000000000        0.0000000000000000     
 Beta =    0.0000000000000000        0.0000000000000000        0.0000000000000000        0.0000000000000000     
 Beta =    0.0000000000000000        0.0000000000000000        0.0000000000000000        0.0000000000000000     
 Beta =    0.0000000000000000        0.0000000000000000        0.0000000000000000        0.0000000000000000     
 Beta =    0.0000000000000000        0.0000000000000000        0.0000000000000000        0.0000000000000000     
 Beta =    0.0000000000000000        0.0000000000000000        0.0000000000000000        0.0000000000000000     
 Beta =    0.0000000000000000        0.0000000000000000        0.0000000000000000        0.0000000000000000     
 Beta =    0.0000000000000000        0.0000000000000000        0.0000000000000000        0.0000000000000000     
 Beta =    0.0000000000000000        0.0000000000000000        0.0000000000000000        0.0000000000000000     
 Beta =    0.0000000000000000        0.0000000000000000        0.0000000000000000        0.0000000000000000     
 Beta =    0.0000000000000000        0.0000000000000000        0.0000000000000000        0.0000000000000000     
 Beta =    0.0000000000000000        0.0000000000000000        0.0000000000000000        0.0000000000000000     
 Beta =    0.0000000000000000        0.0000000000000000        0.0000000000000000        0.0000000000000000     
 Beta =    0.0000000000000000        0.0000000000000000        0.0000000000000000        0.0000000000000000     
 Beta =    0.0000000000000000        0.0000000000000000        0.0000000000000000        0.0000000000000000     
 Beta =    0.0000000000000000        0.0000000000000000        0.0000000000000000        0.0000000000000000     
 Beta =    0.0000000000000000        0.0000000000000000        0.0000000000000000        0.0000000000000000     
 Beta =    0.0000000000000000        0.0000000000000000        0.0000000000000000        0.0000000000000000     
 Beta =    0.0000000000000000        0.0000000000000000        0.0000000000000000        0.0000000000000000     
 Beta =    0.0000000000000000        0.0000000000000000        0.0000000000000000        0.0000000000000000     
 Beta =    0.0000000000000000        0.0000000000000000        0.0000000000000000        0.0000000000000000     
 Beta =    0.0000000000000000        0.0000000000000000        0.0000000000000000        0.0000000000000000     
 Beta =    0.0000000000000000        0.0000000000000000        0.0000000000000000        0.0000000000000000     
 Beta =    0.0000000000000000        0.0000000000000000        0.0000000000000000        0.0000000000000000     
 Beta =    0.0000000000000000        0.0000000000000000        0.0000000000000000        0.0000000000000000     
 Beta =    0.0000000000000000        0.0000000000000000        0.0000000000000000        0.0000000000000000     
 Beta =    0.0000000000000000        0.0000000000000000        0.0000000000000000        0.0000000000000000     
 Beta =    0.0000000000000000        0.0000000000000000        0.0000000000000000        0.0000000000000000     
 Beta =    0.0000000000000000        0.0000000000000000        0.0000000000000000        0.0000000000000000     
 Beta =    0.0000000000000000        0.0000000000000000        0.0000000000000000        0.0000000000000000     
 Beta =    0.0000000000000000        0.0000000000000000        0.0000000000000000        0.0000000000000000     
 Beta =    0.0000000000000000        0.0000000000000000        0.0000000000000000        0.0000000000000000     
 Beta =    0.0000000000000000        0.0000000000000000        0.0000000000000000        0.0000000000000000     
 Beta =    0.0000000000000000        0.0000000000000000        0.0000000000000000        0.0000000000000000     
 Beta =    0.0000000000000000        0.0000000000000000        0.0000000000000000        0.0000000000000000     
 Beta =    0.0000000000000000        0.0000000000000000        0.0000000000000000        0.0000000000000000     
 Beta =    0.0000000000000000        0.0000000000000000        0.0000000000000000        0.0000000000000000     
 Beta =    0.0000000000000000        0.0000000000000000        0.0000000000000000        0.0000000000000000     
 Beta =    0.0000000000000000        0.0000000000000000        0.0000000000000000        0.0000000000000000     
 Beta =    0.0000000000000000        0.0000000000000000        0.0000000000000000        0.0000000000000000     
 Beta =    0.0000000000000000        0.0000000000000000        0.0000000000000000        0.0000000000000000     
 Beta =    0.0000000000000000        0.0000000000000000        0.0000000000000000        0.0000000000000000     
 Beta =    0.0000000000000000        0.0000000000000000        0.0000000000000000        0.0000000000000000     
 Beta =    0.0000000000000000        0.0000000000000000        0.0000000000000000        0.0000000000000000     
 Beta =    0.0000000000000000        0.0000000000000000        0.0000000000000000        0.0000000000000000     
 Beta =    0.0000000000000000        0.0000000000000000        0.0000000000000000        0.0000000000000000     
 Beta =    0.0000000000000000        0.0000000000000000        0.0000000000000000        0.0000000000000000     
 Beta =    0.0000000000000000        0.0000000000000000        0.0000000000000000        0.0000000000000000     
 Beta =    0.0000000000000000        0.0000000000000000        0.0000000000000000        0.0000000000000000     
 Beta =    0.0000000000000000        0.0000000000000000        0.0000000000000000        0.0000000000000000     
 Beta =    0.0000000000000000        0.0000000000000000        0.0000000000000000        0.0000000000000000     
 Beta =    0.0000000000000000        0.0000000000000000        0.0000000000000000        0.0000000000000000     
 Beta =    0.0000000000000000        0.0000000000000000        0.0000000000000000        0.0000000000000000     
 Beta =    0.0000000000000000        0.0000000000000000        0.0000000000000000        0.0000000000000000     
 Beta =    0.0000000000000000        0.0000000000000000        0.0000000000000000        0.0000000000000000     
 Beta =    0.0000000000000000        0.0000000000000000        0.0000000000000000        0.0000000000000000     
 Beta =    0.0000000000000000        0.0000000000000000        0.0000000000000000        0.0000000000000000     
 Beta =    0.0000000000000000        0.0000000000000000        0.0000000000000000        0.0000000000000000     
 Beta =    0.0000000000000000        0.0000000000000000        0.0000000000000000        0.0000000000000000     
 Beta =    0.0000000000000000        0.0000000000000000        0.0000000000000000        0.0000000000000000     
 Beta =    0.0000000000000000        0.0000000000000000        0.0000000000000000        0.0000000000000000     
 Beta =    0.0000000000000000        0.0000000000000000        0.0000000000000000        0.0000000000000000     
 Beta =    0.0000000000000000        0.0000000000000000        0.0000000000000000        0.0000000000000000     
 Beta =    0.0000000000000000        0.0000000000000000        0.0000000000000000        0.0000000000000000     
 Beta =    0.0000000000000000        0.0000000000000000        0.0000000000000000        0.0000000000000000     
 Beta =    0.0000000000000000        0.0000000000000000        0.0000000000000000        0.0000000000000000     
 Beta =    0.0000000000000000        0.0000000000000000        0.0000000000000000        0.0000000000000000     
 Beta =    0.0000000000000000        0.0000000000000000        0.0000000000000000        0.0000000000000000     
 Beta =    0.0000000000000000        0.0000000000000000        0.0000000000000000        0.0000000000000000     
 Beta =    0.0000000000000000        0.0000000000000000        0.0000000000000000        0.0000000000000000     
 Beta =    0.0000000000000000        0.0000000000000000        0.0000000000000000        0.0000000000000000     
 Beta =    0.0000000000000000        0.0000000000000000        0.0000000000000000        0.0000000000000000     
 Beta =    0.0000000000000000        0.0000000000000000        0.0000000000000000        0.0000000000000000     
 Beta =    0.0000000000000000        0.0000000000000000        0.0000000000000000        0.0000000000000000     
 Beta =    0.0000000000000000        0.0000000000000000        0.0000000000000000        0.0000000000000000     
 Beta =    0.0000000000000000        0.0000000000000000        0.0000000000000000        0.0000000000000000     
 Beta =    0.0000000000000000        0.0000000000000000        0.0000000000000000        0.0000000000000000     
 Beta =    0.0000000000000000        0.0000000000000000        0.0000000000000000        0.0000000000000000     
 Beta =    0.0000000000000000        0.0000000000000000        0.0000000000000000        0.0000000000000000     
 Beta =    0.0000000000000000        0.0000000000000000        0.0000000000000000        0.0000000000000000     
 Beta =    0.0000000000000000        0.0000000000000000        0.0000000000000000        0.0000000000000000     
 Beta =    0.0000000000000000        0.0000000000000000        0.0000000000000000        0.0000000000000000     
 Beta =    0.0000000000000000        0.0000000000000000        0.0000000000000000        0.0000000000000000     
 Beta =    0.0000000000000000        0.0000000000000000        0.0000000000000000        0.0000000000000000     
 Beta =    0.0000000000000000        0.0000000000000000        0.0000000000000000        0.0000000000000000     
 Beta =    0.0000000000000000        0.0000000000000000        0.0000000000000000        0.0000000000000000     
 Beta =    0.0000000000000000        0.0000000000000000        0.0000000000000000        0.0000000000000000     
 Beta =    0.0000000000000000        0.0000000000000000        0.0000000000000000        0.0000000000000000     
 Beta =    0.0000000000000000        0.0000000000000000        0.0000000000000000        0.0000000000000000     
 Beta =    0.0000000000000000        0.0000000000000000        0.0000000000000000        0.0000000000000000     
 Beta =    0.0000000000000000        0.0000000000000000        0.0000000000000000        0.0000000000000000     
 Beta =    0.0000000000000000        0.0000000000000000        0.0000000000000000        0.0000000000000000     
 Beta =    0.0000000000000000        0.0000000000000000        0.0000000000000000        0.0000000000000000     
 Beta =    0.0000000000000000        0.0000000000000000        0.0000000000000000        0.0000000000000000     
 Beta =    0.0000000000000000        0.0000000000000000        0.0000000000000000        0.0000000000000000     
 Beta =    0.0000000000000000        0.0000000000000000        0.0000000000000000        0.0000000000000000     
 Beta =    0.0000000000000000        0.0000000000000000        0.0000000000000000        0.0000000000000000     
 Beta =    0.0000000000000000        0.0000000000000000        0.0000000000000000        0.0000000000000000     
 Beta =    0.0000000000000000        0.0000000000000000        0.0000000000000000        0.0000000000000000     
 Beta =    0.0000000000000000        0.0000000000000000        0.0000000000000000        0.0000000000000000     
DefUtils::DefaultDirichletBCs: Setting Dirichlet boundary conditions
DefUtils::DefaultDirichletBCs: Dirichlet boundary conditions set
       1 0.3372E-01
       2 0.3095E-01
       3 0.1624E-01
       4 0.1386E-01
       5 0.9078E-02
       6 0.5561E-02
       7 0.3070E-02
       8 0.2160E-02
       9 0.1836E-02
      10 0.1585E-02
      11 0.1387E-02
      12 0.1148E-02
      13 0.9637E-03
      14 0.8459E-03
      15 0.7420E-03
      16 0.6638E-03
      17 0.6085E-03
      18 0.5500E-03
      19 0.4918E-03
      20 0.4376E-03
      21 0.3752E-03
      22 0.3364E-03
      23 0.3011E-03
      24 0.2782E-03
      25 0.2559E-03
      26 0.2350E-03
      27 0.2124E-03
      28 0.1895E-03
      29 0.1691E-03
      30 0.1506E-03
      31 0.1360E-03
      32 0.1224E-03
      33 0.1096E-03
      34 0.9809E-04
      35 0.8681E-04
      36 0.7786E-04
      37 0.7018E-04
      38 0.6405E-04
      39 0.5860E-04
      40 0.5341E-04
      41 0.4851E-04
      42 0.4337E-04
      43 0.3881E-04
      44 0.3423E-04
      45 0.3029E-04
      46 0.1880E-04
      47 0.1302E-03
      48 0.1687E-04
      49 0.1559E-04
      50 0.8661E-05
      51 0.7228E-05
      52 0.6862E-05
      53 0.6291E-05
      54 0.6024E-05
      55 0.5494E-05
      56 0.5275E-05
      57 0.5257E-05
      58 0.5102E-05
      59 0.4303E-05
      60 0.3927E-05
      61 0.4199E-05
      62 0.3716E-05
      63 0.3811E-05
      64 0.3261E-05
      65 0.2404E-05
      66 0.2390E-05
      67 0.2320E-05
      68 0.1853E-05
      69 0.1572E-05
      70 0.7159E-06
      70 0.7159E-06
ComputeChange: NS (ITER=1) (NRM,RELC): ( 0.12029024E-03 0.77595578E-01 ) :: nonlinear elasticity
ElasticSolve: Computing postprocessing fields
ElasticSolve: Stress Component 11
       1 0.3047E-01
       2 0.2321E-02
       3 0.5280E-03
       4 0.1789E-03
       5 0.6272E-04
       6 0.1733E-04
       7 0.4817E-05
       8 0.1488E-05
       9 0.5813E-06
       9 0.5813E-06
ComputeStressAndStrain: Solution Norm:  26.185100
ElasticSolve: Stress Component 22
       1 0.1339E+00
       2 0.9672E-02
       3 0.2196E-02
       4 0.7059E-03
       5 0.2249E-03
       6 0.7218E-04
       7 0.2621E-04
       8 0.8673E-05
       9 0.3345E-05
      10 0.1515E-05
      11 0.5582E-06
      11 0.5582E-06
ComputeStressAndStrain: Solution Norm:  16.224720
ElasticSolve: Stress Component 33
       1 0.1342E-01
       2 0.1046E-02
       3 0.3159E-03
       4 0.1160E-03
       5 0.3873E-04
       6 0.1192E-04
       7 0.3314E-05
       8 0.1105E-05
       9 0.4333E-06
       9 0.4333E-06
ComputeStressAndStrain: Solution Norm:  52.234509
ElasticSolve: Stress Component 12
       1 0.1205E-01
       2 0.1407E-02
       3 0.2620E-03
       4 0.8855E-04
       5 0.1619E-04
       6 0.7431E-05
       7 0.4337E-05
       8 0.3028E-05
       9 0.1909E-05
      10 0.1199E-05
      11 0.7595E-06
      11 0.7595E-06
ComputeStressAndStrain: Solution Norm: 0.46119361E-10
ElasticSolve: Stress Component 23
       1 0.5890E-01
       2 0.7107E-02
       3 0.1640E-02
       4 0.4334E-03
       5 0.9746E-04
       6 0.2143E-04
       7 0.4274E-05
       8 0.9628E-06
       8 0.9628E-06
ComputeStressAndStrain: Solution Norm:  4.1463509
ElasticSolve: Stress Component 13
       1 0.3880E-01
       2 0.5423E-02
       3 0.8136E-03
       4 0.2638E-03
       5 0.7962E-04
       6 0.2749E-04
       7 0.1182E-04
       8 0.4826E-05
       9 0.2072E-05
      10 0.1208E-05
      11 0.7739E-06
      11 0.7739E-06
ComputeStressAndStrain: Solution Norm: 0.45839791E-11
ElasticSolve: Displacing the mesh with computed displacement field
ElasticSolver: All done
ElasticSolver: ------------------------------------------
SingleSolver: Attempting to call solver
SingleSolver: Solver Equation string is: internalvtuoutputsolver
ResultOutputSolver: -------------------------------------
ResultOutputSolver: Dimension of mesh: 3
ResultOutputSolver: Saving in unstructured VTK XML (.vtu) format
WriteVtuFile: Writing body and BC indexes
ResultOutputSolver: -------------------------------------
 SolverModule:UpdateDisplacements: Reporting displacements to the fluid solver
 SolverModule:Run: runs =            1
 SolverModule:Run: CurrentModel%GetTestLoads =  F
 SolverModule:Run: CurrentModel%UDFUsed =  T
ElmerFoamDriver:Run: Converged at time(0.05)
 SolverModule:Finalize: Finishing simulation
MyElmerSolver: *** Elmer Solver: ALL DONE ***
MyElmerSolver: The end
ELMER SOLVER FINISHED AT: 2016/03/01 11:07:49
 SolverModule:Finalize: End Finalize. FirstTime =  F
Unloading FsiFoamModule with name FluidsComponentInterface.
Unloading SolverModule: StructuresComponentInterface
Fortran module StructuresComponentInterface unloading name StructuresComponentInterface
