Loading FsiFoamModule with name FluidsComponentInterface.
Loading SolverModule: StructuresComponentInterface
/*---------------------------------------------------------------------------*\
| =========                 |                                                 |
| \\      /  F ield         | foam-extend: Open Source CFD                    |
|  \\    /   O peration     | Version:  3.0                                   |
|   \\  /    A nd           | Web:         http://www.extend-project.de       |
|    \\/     M anipulation  |                                                 |
\*---------------------------------------------------------------------------*/
Build    : 3.0-7a7445ead09d
Exec     : test
Date     : Feb 22 2016
Time     : 13:10:48
Host     : ilrocstar6
PID      : 12664
CtrlDict : /home/msafdari/foam/foam-extend-3.0/etc/controlDict
Case     : /Projects/IR/Users/msafdari/scratch/ElmerFoamSimpleVerifStaticZ-2/fluid
nProcs   : 1
SigFpe   : Enabling floating point exception trapping (FOAM_SIGFPE).

// * * * * * * * * * * * * * * * * * * * * * * * * * * * * * * * * * * * * * //
FsiFoam:Initialize: Create dynamic mesh for time = 0
--> FOAM Warning : 
    From function dlLibraryTable::open(const fileName& functionLibName)
    in file db/dlLibraryTable/dlLibraryTable.C at line 85
    could not load /home/msafdari/foam/foam-extend-3.0/lib/linux64GccDPOpt/libmesquiteMotionSolver.so: undefined symbol: _ZTIN4Foam11regIOobjectE
--> FOAM Warning : 
    From function dynamicFvMesh::New(const IOobject& io)
    in file dynamicFvMesh/newDynamicFvMesh.C at line 42
    Loading of dynamic mesh library libmesquiteMotionSolver.so unsuccesful. Some dynamic mesh  methods may not be  available
Selecting dynamicFvMesh dynamicMotionSolverFvMesh
Selecting motion solver: laplace
Selecting motion diffusivity: quadratic
FsiFoam:Initialize: Reading transportProperties
FsiFoam:CreateFluidFields: Reading field p
FsiFoam:CreateFluidFields: Reading field U
FsiFoam:CreateFluidFields: Reading/calculating face flux field phi
FsiFoam:CreateStructuresFields: Reading incremental displacement field DU
Patch right	Traction boundary field: DU
	nonLinear set to updated Lagrangian
--> FOAM Warning : The gradScheme for DU should be "extendedLeastSquares 0" for the boundary non-orthogonal correction to be right
Patch bottom	Traction boundary field: DU
	nonLinear set to updated Lagrangian
--> FOAM Warning : The gradScheme for DU should be "extendedLeastSquares 0" for the boundary non-orthogonal correction to be right
Patch fsiFace	Traction boundary field: DU
	nonLinear set to updated Lagrangian
--> FOAM Warning : The gradScheme for DU should be "extendedLeastSquares 0" for the boundary non-orthogonal correction to be right
FsiFoam:CreateStructuresFields: Reading incremental displacement field DV
FsiFoam:CreateStructuresFields: Reading accumulated velocity field V
FsiFoam:CreateStructuresFields: Reading accumulated stress field sigma
FsiFoam:CreateStructuresFields: Reading incremental stress field DSigma
Selecting rheology model linearElastic
Creating constitutive model
FsiFoam:ReadCouplingProperties: Reading coupling properties
FsiFoam:ReadCouplingProperties:Solid patch ID: 3
FsiFoam:CreateInterZoneInterpolators: Create fluid-to-solid and solid-to-fluid interpolators
FsiFoam:CreateInterZoneInterpolators: Check fluid-to-solid and solid-to-fluid interpolators
FsiFoam:CreateInterZoneInterpolators: Fluid-to-solid face interpolation error: 0.00326087
FsiFoam:CreateInterZoneInterpolators: Solid-to-fluid face interpolation error: 0.024375
 SolverModule:Initializer: Starting ...
ELMER SOLVER (v 8.0) STARTED AT: 2016/02/22 13:10:48
ParCommInit:  Initialize #PEs:            1
MAIN: 
MAIN: =============================================================
MAIN: MyElmerSolver finite element software, Welcome!
MAIN: This program is free software licensed under (L)GPL
MAIN: Copyright 1st April 1995 - , CSC - IT Center for Science Ltd.
MAIN: Webpage http://www.csc.fi/elmer, Email elmeradm@csc.fi
MAIN: Library version: 8.0
MAIN: =============================================================
 MyInitialize: Setting FirstTime to FALSE
MAIN: 
MAIN: 
MAIN: -------------------------------------
MAIN: Reading Model: case.sif
Loading user function library: [MyLibrary]...[MyFunction2]
Loading user function library: [ElasticSolve]...[ElasticSolver_Init0]
LoadMesh: Base mesh name: ./.
LoadMesh: Elapsed time (CPU,REAL):     0.0020    0.0036 (s)
MAIN: -------------------------------------
AddVtuOutputSolverHack: Adding ResultOutputSolver to write VTU output in file: case
Loading user function library: [ElasticSolve]...[ElasticSolver_Init]
Loading user function library: [ElasticSolve]...[ElasticSolver]
OptimizeBandwidth: ---------------------------------------------------------
OptimizeBandwidth: Computing matrix structure for: nonlinear elasticity...done.
OptimizeBandwidth: Half bandwidth without optimization: 12
OptimizeBandwidth: 
OptimizeBandwidth: Bandwidth Optimization ...done.
OptimizeBandwidth: Half bandwidth after optimization: 16
OptimizeBandwidth: Bandwidth optimization rejected, using original ordering.
OptimizeBandwidth: ---------------------------------------------------------
Loading user function library: [ResultOutputSolve]...[ResultOutputSolver_Init]
Loading user function library: [ResultOutputSolve]...[ResultOutputSolver]
 Equation = nonlinear elasticity                                                                                                            

 SolverModule:Initializer: Done.....
Stride = 3 Cap = 102
Building pane connectivity...Done
Building pane connectivity...Done
	Mesh StructuresComponentInterface: 102 vertices, 50 faces, with bounding box 0 0.1 0 0.1 0.1 1
	Mesh FluidsComponentInterface: 102 vertices, 50 faces, with bounding box 0 0.1 0 0.1 0.1 1
	Found 4 ridges and 4 corners and dropped 0 false-strong edges.
	Done in 0 sec.
	Found 4 ridges and 4 corners and dropped 0 false-strong edges.
	Done in 0 sec.
Performing mesh overlay...
The input meshes have opposite orientations
Starting with seed vertex 3 in pane 11 of blue mesh at (0,0.1,0.02)
.........
	Located 102 edge intersections.
	Done in 0.0381389 sec.
Exporting the subdivision...Done in 0.020237 sec.


 ***************************************** 
        Starting Stepping in Time        
 ***************************************** 

ElmerFoamDriver:Run: Summary of the simulation 
     Simulation Type       = ElmerFoamFSI
     Simulation final time = 10
     Simulation time step  = 0.002

ElmerFoamDriver:Run: System timestep 1 @ Time = 0
ElmerFoamDriver:Run: Transferring displacements from structures to fluids @ time(0)
ElmerFoamDriver:TransferDisplacementsToFluid: Solid displacements for node 0: 
1.0469e-312 1.0469e-312 1.03113e-316
ElmerFoamDriver:TransferDisplacementsToFluid: Fluid displacements for node 0: 
1.0469e-312 1.0469e-312 1.03113e-316
ElmerFoamDriver:Run: Stepping fluids to time(0.002)
FsiFoam:StepFluid: Stepping fluid solver...
FsiFoam:StepFluid: Time = 0
FsiFoam:ReadFSIControl: Selecting coupling scheme Aitken
FsiFoam:ReadFSIControl: outerCorrTolerance = 0.0001
FsiFoam:ReadFSIControl: FSI IS ENABLED.
FsiFoam:StepFluidNonItr: outerCorr = 1
FsiFoam:StepFluidNonItr: Time = 0.001, iteration: 1
FsiFoam:UpdateFSISurface: Reporting solid displacements to the fluid solver
FsiFoam:StepFluidNonItr: Maximal accumulated displacement of interface points: 1.16323e-310
FsiFoam:StepFluidNonItr: Moving only interface...Compensating for mesh movment !
FsiFoam:StepFluidNonItr: Courant Number mean: 0 max: 2.57792e-315 velocity magnitude: 2.57792e-314
DILUPBiCG:  Solving for Uy, Initial residual = 0.988602, Final residual = 5.81208e-11, No Iterations 2
DILUPBiCG:  Solving for Uz, Initial residual = 0.990861, Final residual = 5.82829e-11, No Iterations 2
GAMG:  Solving for p, Initial residual = 0.999835, Final residual = 1.0419, No Iterations 1000
GAMG:  Solving for p, Initial residual = 0.332413, Final residual = 0.322347, No Iterations 1000
FsiFoam:StepFluidNonItr: time step continuity errors : sum local = 8.58329e-19, global = -5.02949e-20, cumulative = -5.02949e-20
GAMG:  Solving for p, Initial residual = 0.321485, Final residual = 0.34837, No Iterations 1000
GAMG:  Solving for p, Initial residual = 0.339767, Final residual = 0.326229, No Iterations 1000
FsiFoam:StepFluidNonItr: time step continuity errors : sum local = 8.67835e-19, global = -3.16226e-20, cumulative = -8.19175e-20
FsiFoam:StepFluid: ExecutionTime = 1.88 s  ClockTime = 2 s
FsiFoam:UpdateFSISurface: Reporting surface loads to the solid solver 
ElmerFoamDriver:TransferLoadsToStructures: Transfering loads to the structures solver.
ElmerFoamDriver:Run: Stepping structures to time(0.002)
 MyTimeModule:MyTimeStepper: Timesteps(interval) =            0
 MyTimeModule:MyTimeStepper: Timesteps(interval) =            1
MAIN: 
MAIN: -------------------------------------
MAIN:  Time: 1/1   1.0000000000000000E-003
MAIN: -------------------------------------
MAIN: 
 MyTimeModule:UpdateLoads: Updating loads on the structure
 MyTimeModule:UpdateLoads: Time Step Summary 
     sTime(1)     =    1.0000000000000000E-003
     PreviousTime =    0.0000000000000000     
     FinalTime    =    2.0000000000000000E-003
 MyTimeModule:UpdateLoads: Finishing
 MyTimeModule:MyTimeStepper: Calling SolveEquations
    Transient =  T
SingleSolver: Attempting to call solver
SingleSolver: Solver Equation string is: nonlinear elasticity
ElasticSolve: 
ElasticSolve: 
ElasticSolve: -------------------------------------
ElasticSolve:  ELASTICITY ITERATION              1
ElasticSolve: -------------------------------------
ElasticSolve: 
ElasticSolve: Starting assembly...
DefUtils::DefaultDirichletBCs: Setting Dirichlet boundary conditions
DefUtils::DefaultDirichletBCs: Dirichlet boundary conditions set
       1 0.4608E+00
       2 0.4190E+00
       3 0.4271E+00
       4 0.3656E+00
       5 0.2934E+00
       6 0.2531E+00
       7 0.2107E+00
       8 0.1727E+00
       9 0.1460E+00
      10 0.1212E+00
      11 0.1047E+00
      12 0.8681E-01
      13 0.7494E-01
      14 0.6351E-01
      15 0.5317E-01
      16 0.4383E-01
      17 0.3504E-01
      18 0.2831E-01
      19 0.2288E-01
      20 0.1901E-01
      21 0.1692E-01
      22 0.1518E-01
      23 0.1357E-01
      24 0.1225E-01
      25 0.1096E-01
      26 0.9834E-02
      27 0.8735E-02
      28 0.7880E-02
      29 0.7025E-02
      30 0.6282E-02
      31 0.5579E-02
      32 0.5000E-02
      33 0.4324E-02
      34 0.3778E-02
      35 0.3250E-02
      36 0.2843E-02
      37 0.2599E-02
      38 0.2406E-02
      39 0.2242E-02
      40 0.2107E-02
      41 0.1968E-02
      42 0.1857E-02
      43 0.1746E-02
      44 0.1633E-02
      45 0.1547E-02
      46 0.1464E-02
      47 0.1402E-02
      48 0.1334E-02
      49 0.1278E-02
      50 0.1213E-02
      51 0.1155E-02
      52 0.1078E-02
      53 0.1010E-02
      54 0.9454E-03
      55 0.8705E-03
      56 0.8007E-03
      57 0.7377E-03
      58 0.6704E-03
      59 0.6127E-03
      60 0.5610E-03
      61 0.5227E-03
      62 0.4792E-03
      63 0.4378E-03
      64 0.3809E-03
      65 0.3524E-03
      66 0.3126E-03
      67 0.2548E-03
      68 0.1851E-03
      69 0.1606E-03
      70 0.1325E-03
      71 0.1159E-03
      72 0.7533E-04
      73 0.5105E-04
      74 0.4317E-04
      75 0.4354E-04
      76 0.2621E-04
      77 0.2883E-04
      78 0.2264E-04
      79 0.1793E-04
      80 0.1892E-04
      81 0.1103E-04
      82 0.1113E-04
      83 0.9497E-05
      84 0.7772E-05
      85 0.6698E-05
      86 0.5650E-05
      87 0.4924E-05
      88 0.4168E-05
      89 0.3668E-05
      90 0.3109E-05
      91 0.2753E-05
      92 0.2497E-05
      93 0.2178E-05
      94 0.1546E-05
      95 0.1409E-05
      96 0.1809E-05
      97 0.8863E-06
      97 0.8863E-06
ComputeChange: NS (ITER=1) (NRM,RELC): ( 0.71265582E-07  2.0000000     ) :: nonlinear elasticity
ElasticSolve: Computing postprocessing fields
OptimizeBandwidth: ---------------------------------------------------------
OptimizeBandwidth: Computing matrix structure for: calculate stresses...done.
OptimizeBandwidth: Half bandwidth without optimization: 12
OptimizeBandwidth: 
OptimizeBandwidth: Bandwidth Optimization ...done.
OptimizeBandwidth: Half bandwidth after optimization: 16
OptimizeBandwidth: Bandwidth optimization rejected, using original ordering.
OptimizeBandwidth: ---------------------------------------------------------
ElasticSolve: Stress Component 11
       1 0.4014E-01
       2 0.6731E-02
       3 0.8416E-03
       4 0.3134E-03
       5 0.1125E-03
       6 0.3974E-04
       7 0.1582E-04
       8 0.5643E-05
       9 0.1954E-05
      10 0.7521E-06
      10 0.7521E-06
ComputeStressAndStrain: Solution Norm: 0.21852912
ElasticSolve: Stress Component 22
       1 0.3076E-01
       2 0.4620E-02
       3 0.6013E-03
       4 0.2268E-03
       5 0.9055E-04
       6 0.3339E-04
       7 0.1299E-04
       8 0.4718E-05
       9 0.1723E-05
      10 0.6907E-06
      10 0.6907E-06
ComputeStressAndStrain: Solution Norm: 0.31108426
ElasticSolve: Stress Component 33
       1 0.5253E-01
       2 0.9690E-02
       3 0.1140E-02
       4 0.4474E-03
       5 0.1494E-03
       6 0.5472E-04
       7 0.2177E-04
       8 0.6790E-05
       9 0.2148E-05
      10 0.8052E-06
      10 0.8052E-06
ComputeStressAndStrain: Solution Norm: 0.26209714
ElasticSolve: Stress Component 12
       1 0.7842E-01
       2 0.2292E-01
       3 0.7726E-02
       4 0.3010E-02
       5 0.1315E-02
       6 0.5460E-03
       7 0.2549E-03
       8 0.1228E-03
       9 0.8150E-04
      10 0.5849E-04
      11 0.4281E-04
      12 0.2879E-04
      13 0.1708E-04
      14 0.9740E-05
      15 0.5540E-05
      16 0.3424E-05
      17 0.2182E-05
      18 0.1428E-05
      19 0.8258E-06
      19 0.8258E-06
ComputeStressAndStrain: Solution Norm: 0.83775652E-15
ElasticSolve: Stress Component 23
       1 0.2362E-01
       2 0.4513E-02
       3 0.1043E-02
       4 0.2545E-03
       5 0.6707E-04
       6 0.1647E-04
       7 0.4631E-05
       8 0.1452E-05
       9 0.4872E-06
       9 0.4872E-06
ComputeStressAndStrain: Solution Norm: 0.98518588E-01
ElasticSolve: Stress Component 13
       1 0.1992E-01
       2 0.4416E-02
       3 0.1198E-02
       4 0.5307E-03
       5 0.2245E-03
       6 0.7317E-04
       7 0.2377E-04
       8 0.8370E-05
       9 0.3491E-05
      10 0.2369E-05
      11 0.1728E-05
      12 0.1263E-05
      13 0.8662E-06
      13 0.8662E-06
ComputeStressAndStrain: Solution Norm: 0.92714099E-15
ElasticSolve: Displacing the mesh with computed displacement field
ElasticSolver: All done
ElasticSolver: ------------------------------------------
SingleSolver: Attempting to call solver
SingleSolver: Solver Equation string is: internalvtuoutputsolver
ResultOutputSolver: -------------------------------------
ResultOutputSolve: Saving with prefix: case
ResultOutputSolver: Dimension of mesh: 3
ResultOutputSolver: Creating list for saving - if not present
CreateListForSaving: Field Variables for Saving
CreateListForSaving: Scalar Field 1: stress_xx
CreateListForSaving: Scalar Field 2: stress_yy
CreateListForSaving: Scalar Field 3: stress_zz
CreateListForSaving: Scalar Field 4: stress_xy
CreateListForSaving: Scalar Field 5: stress_yz
CreateListForSaving: Scalar Field 6: stress_xz
CreateListForSaving: Scalar Field 7: vonmises
CreateListForSaving: Vector Field 1: displacement
ResultOutputSolver: Saving in unstructured VTK XML (.vtu) format
VtuOutputSolver: Saving results in VTK XML format with prefix: case
VtuOutputSolver: Saving number of partitions: 1
VtuOutputSolver: Number of nodes to save:     408
VtuOutputSolver: Number of elements to save:     556
WriteVtuFile: Writing body and BC indexes
ResultOutputSolver: -------------------------------------
 SolverModule:UpdateDisplacements: Reporting displacements to the fluid solver
 SolverModule:Run: runs =            1
 SolverModule:Run: CurrentModel%GetTestLoads =  F
 SolverModule:Run: CurrentModel%UDFUsed =  T
ElmerFoamDriver:Run: Converged at time(0.002)
ElmerFoamDriver:Run: System timestep 2 @ Time = 0.002
ElmerFoamDriver:Run: Transferring displacements from structures to fluids @ time(0.002)
ElmerFoamDriver:TransferDisplacementsToFluid: Solid displacements for node 0: 
1.96548e-27 -1.49067e-07 -2.95378e-08
ElmerFoamDriver:TransferDisplacementsToFluid: Fluid displacements for node 0: 
1.96548e-27 -1.49067e-07 -2.95378e-08
ElmerFoamDriver:Run: Stepping fluids to time(0.004)
FsiFoam:StepFluid: Stepping fluid solver...
FsiFoam:StepFluid: Time = 0.001
FsiFoam:ReadFSIControl: Selecting coupling scheme Aitken
FsiFoam:ReadFSIControl: outerCorrTolerance = 0.0001
FsiFoam:ReadFSIControl: FSI IS ENABLED.
FsiFoam:StepFluidNonItr: outerCorr = 1
FsiFoam:StepFluidNonItr: Time = 0.002, iteration: 1
FsiFoam:UpdateFSISurface: Reporting solid displacements to the fluid solver
FsiFoam:StepFluidNonItr: Maximal accumulated displacement of interface points: 1.65631e-05
FsiFoam:StepFluidNonItr: Moving only interface...Compensating for mesh movment !
FsiFoam:StepFluidNonItr: Courant Number mean: 3.12251e-09 max: 2.45733e-05 velocity magnitude: 0.000221161
DILUPBiCG:  Solving for Uy, Initial residual = 0.313091, Final residual = 4.82466e-12, No Iterations 2
DILUPBiCG:  Solving for Uz, Initial residual = 0.333344, Final residual = 3.99082e-12, No Iterations 2
GAMG:  Solving for p, Initial residual = 0.756841, Final residual = 0.384693, No Iterations 1000
GAMG:  Solving for p, Initial residual = 0.342858, Final residual = 0.362193, No Iterations 1000
FsiFoam:StepFluidNonItr: time step continuity errors : sum local = 7.00594e-19, global = -6.79132e-20, cumulative = -1.49831e-19
GAMG:  Solving for p, Initial residual = 0.347085, Final residual = 0.311977, No Iterations 1000
GAMG:  Solving for p, Initial residual = 0.331901, Final residual = 0.33657, No Iterations 1000
FsiFoam:StepFluidNonItr: time step continuity errors : sum local = 7.11264e-19, global = -8.32727e-20, cumulative = -2.33103e-19
FsiFoam:StepFluid: ExecutionTime = 3.61 s  ClockTime = 4 s
FsiFoam:UpdateFSISurface: Reporting surface loads to the solid solver 
ElmerFoamDriver:TransferLoadsToStructures: Transfering loads to the structures solver.
ElmerFoamDriver:Run: Stepping structures to time(0.004)
 MyTimeModule:MyTimeStepper: Timesteps(interval) =            0
 MyTimeModule:MyTimeStepper: Timesteps(interval) =            1
MAIN: 
MAIN: -------------------------------------
MAIN:  Time: 1/2   2.0000000000000000E-003
MAIN: -------------------------------------
MAIN: 
 MyTimeModule:UpdateLoads: Updating loads on the structure
 MyTimeModule:UpdateLoads: Time Step Summary 
     sTime(1)     =    2.0000000000000000E-003
     PreviousTime =    2.0000000000000000E-003
     FinalTime    =    4.0000000000000001E-003
 MyTimeModule:UpdateLoads: Finishing
 MyTimeModule:MyTimeStepper: Calling SolveEquations
    Transient =  T
SingleSolver: Attempting to call solver
SingleSolver: Solver Equation string is: nonlinear elasticity
ElasticSolve: 
ElasticSolve: 
ElasticSolve: -------------------------------------
ElasticSolve:  ELASTICITY ITERATION              1
ElasticSolve: -------------------------------------
ElasticSolve: 
ElasticSolve: Starting assembly...
DefUtils::DefaultDirichletBCs: Setting Dirichlet boundary conditions
DefUtils::DefaultDirichletBCs: Dirichlet boundary conditions set
       1 0.6788E+00
       2 0.1021E+01
       3 0.8106E+00
       4 0.3607E+00
       5 0.2144E+00
       6 0.1820E+00
       7 0.1457E+00
       8 0.1198E+00
       9 0.1032E+00
      10 0.8676E-01
      11 0.7506E-01
      12 0.6322E-01
      13 0.5646E-01
      14 0.4955E-01
      15 0.4425E-01
      16 0.3884E-01
      17 0.3484E-01
      18 0.3037E-01
      19 0.2585E-01
      20 0.2213E-01
      21 0.1840E-01
      22 0.1539E-01
      23 0.1215E-01
      24 0.9931E-02
      25 0.8032E-02
      26 0.6741E-02
      27 0.6074E-02
      28 0.5619E-02
      29 0.5186E-02
      30 0.4779E-02
      31 0.4418E-02
      32 0.4093E-02
      33 0.3742E-02
      34 0.3445E-02
      35 0.3187E-02
      36 0.2969E-02
      37 0.2780E-02
      38 0.2625E-02
      39 0.2475E-02
      40 0.2345E-02
      41 0.2211E-02
      42 0.2100E-02
      43 0.1981E-02
      44 0.1866E-02
      45 0.1773E-02
      46 0.1677E-02
      47 0.1595E-02
      48 0.1494E-02
      49 0.1406E-02
      50 0.1300E-02
      51 0.1208E-02
      52 0.1099E-02
      53 0.1020E-02
      54 0.9425E-03
      55 0.8587E-03
      56 0.7838E-03
      57 0.7137E-03
      58 0.6395E-03
      59 0.5781E-03
      60 0.5265E-03
      61 0.4856E-03
      62 0.4372E-03
      63 0.3885E-03
      64 0.3396E-03
      65 0.3106E-03
      66 0.2756E-03
      67 0.2453E-03
      68 0.2144E-03
      69 0.1917E-03
      70 0.1651E-03
      71 0.1478E-03
      72 0.1284E-03
      73 0.1142E-03
      74 0.9980E-04
      75 0.9015E-04
      76 0.8055E-04
      77 0.7154E-04
      78 0.6409E-04
      79 0.5776E-04
      80 0.5032E-04
      81 0.4678E-04
      82 0.5531E-04
      83 0.4226E-04
      84 0.2790E-04
      85 0.2471E-04
      86 0.1778E-04
      87 0.2315E-04
      88 0.7167E-05
      89 0.6643E-05
      90 0.3433E-05
      91 0.2911E-05
      92 0.2508E-05
      93 0.1796E-05
      94 0.1565E-05
      95 0.7421E-06
      95 0.7421E-06
ComputeChange: NS (ITER=1) (NRM,RELC): ( 0.41067286E-06  1.4085088     ) :: nonlinear elasticity
ElasticSolve: Computing postprocessing fields
ElasticSolve: Stress Component 11
       1 0.7127E-01
       2 0.1567E-01
       3 0.1378E-02
       4 0.4413E-03
       5 0.1628E-03
       6 0.6152E-04
       7 0.2469E-04
       8 0.9584E-05
       9 0.3883E-05
      10 0.1514E-05
      11 0.5474E-06
      11 0.5474E-06
ComputeStressAndStrain: Solution Norm: 0.69679847
ElasticSolve: Stress Component 22
       1 0.5962E-01
       2 0.1205E-01
       3 0.1294E-02
       4 0.4032E-03
       5 0.1606E-03
       6 0.6094E-04
       7 0.2411E-04
       8 0.9138E-05
       9 0.3367E-05
      10 0.1333E-05
      11 0.5085E-06
      11 0.5085E-06
ComputeStressAndStrain: Solution Norm: 0.79547493
ElasticSolve: Stress Component 33
       1 0.6514E-01
       2 0.1578E-01
       3 0.1141E-02
       4 0.3670E-03
       5 0.1174E-03
       6 0.4764E-04
       7 0.1905E-04
       8 0.7312E-05
       9 0.3180E-05
      10 0.1207E-05
      11 0.3793E-06
      11 0.3793E-06
ComputeStressAndStrain: Solution Norm:  1.0659323
ElasticSolve: Stress Component 12
       1 0.1048E+00
       2 0.3246E-01
       3 0.1064E-01
       4 0.3674E-02
       5 0.9820E-03
       6 0.3122E-03
       7 0.1058E-03
       8 0.3962E-04
       9 0.1596E-04
      10 0.7006E-05
      11 0.4097E-05
      12 0.2982E-05
      13 0.2193E-05
      14 0.1702E-05
      15 0.1310E-05
      16 0.1003E-05
      17 0.6986E-06
      17 0.6986E-06
ComputeStressAndStrain: Solution Norm: 0.17403157E-12
ElasticSolve: Stress Component 23
       1 0.2104E-01
       2 0.3893E-02
       3 0.1133E-02
       4 0.2727E-03
       5 0.8936E-04
       6 0.2341E-04
       7 0.7860E-05
       8 0.2325E-05
       9 0.8663E-06
       9 0.8663E-06
ComputeStressAndStrain: Solution Norm: 0.38982980
ElasticSolve: Stress Component 13
       1 0.7000E-01
       2 0.1478E-01
       3 0.4422E-02
       4 0.1401E-02
       5 0.4727E-03
       6 0.1745E-03
       7 0.7064E-04
       8 0.3377E-04
       9 0.1475E-04
      10 0.5270E-05
      11 0.1437E-05
      12 0.4416E-06
      12 0.4416E-06
ComputeStressAndStrain: Solution Norm: 0.26535764E-12
ElasticSolve: Displacing the mesh with computed displacement field
ElasticSolver: All done
ElasticSolver: ------------------------------------------
SingleSolver: Attempting to call solver
SingleSolver: Solver Equation string is: internalvtuoutputsolver
ResultOutputSolver: -------------------------------------
ResultOutputSolver: Dimension of mesh: 3
ResultOutputSolver: Saving in unstructured VTK XML (.vtu) format
WriteVtuFile: Writing body and BC indexes
ResultOutputSolver: -------------------------------------
 SolverModule:UpdateDisplacements: Reporting displacements to the fluid solver
 SolverModule:Run: runs =            1
 SolverModule:Run: CurrentModel%GetTestLoads =  F
 SolverModule:Run: CurrentModel%UDFUsed =  T
ElmerFoamDriver:Run: Converged at time(0.004)
ElmerFoamDriver:Run: System timestep 3 @ Time = 0.004
ElmerFoamDriver:Run: Transferring displacements from structures to fluids @ time(0.004)
ElmerFoamDriver:TransferDisplacementsToFluid: Solid displacements for node 0: 
-1.96548e-27 -6.75863e-07 -7.93736e-08
ElmerFoamDriver:TransferDisplacementsToFluid: Fluid displacements for node 0: 
-1.96548e-27 -6.75863e-07 -7.93736e-08
ElmerFoamDriver:Run: Stepping fluids to time(0.006)
FsiFoam:StepFluid: Stepping fluid solver...
FsiFoam:StepFluid: Time = 0.002
FsiFoam:ReadFSIControl: Selecting coupling scheme Aitken
FsiFoam:ReadFSIControl: outerCorrTolerance = 0.0001
FsiFoam:ReadFSIControl: FSI IS ENABLED.
FsiFoam:StepFluidNonItr: outerCorr = 1
FsiFoam:StepFluidNonItr: Time = 0.003, iteration: 1
FsiFoam:UpdateFSISurface: Reporting solid displacements to the fluid solver
FsiFoam:StepFluidNonItr: Maximal accumulated displacement of interface points: 9.16582e-05
FsiFoam:StepFluidNonItr: Moving only interface...Compensating for mesh movment !
FsiFoam:StepFluidNonItr: Courant Number mean: 1.49673e-08 max: 0.000103884 velocity magnitude: 0.000935001
DILUPBiCG:  Solving for Uy, Initial residual = 0.437981, Final residual = 5.5621e-12, No Iterations 2
DILUPBiCG:  Solving for Uz, Initial residual = 0.351328, Final residual = 3.89561e-12, No Iterations 2
GAMG:  Solving for p, Initial residual = 0.543261, Final residual = 0.349064, No Iterations 1000
GAMG:  Solving for p, Initial residual = 0.400139, Final residual = 0.394599, No Iterations 1000
FsiFoam:StepFluidNonItr: time step continuity errors : sum local = 7.2741e-19, global = -1.0074e-19, cumulative = -3.33844e-19
GAMG:  Solving for p, Initial residual = 0.39255, Final residual = 0.45747, No Iterations 1000
GAMG:  Solving for p, Initial residual = 0.400271, Final residual = 0.347706, No Iterations 1000
FsiFoam:StepFluidNonItr: time step continuity errors : sum local = 7.32543e-19, global = -1.17907e-19, cumulative = -4.51751e-19
FsiFoam:StepFluid: ExecutionTime = 5.34 s  ClockTime = 5 s
FsiFoam:UpdateFSISurface: Reporting surface loads to the solid solver 
ElmerFoamDriver:TransferLoadsToStructures: Transfering loads to the structures solver.
ElmerFoamDriver:Run: Stepping structures to time(0.006)
 MyTimeModule:MyTimeStepper: Timesteps(interval) =            0
 MyTimeModule:MyTimeStepper: Timesteps(interval) =            1
MAIN: 
MAIN: -------------------------------------
MAIN:  Time: 1/3   3.0000000000000001E-003
MAIN: -------------------------------------
MAIN: 
 MyTimeModule:UpdateLoads: Updating loads on the structure
 MyTimeModule:UpdateLoads: Time Step Summary 
     sTime(1)     =    3.0000000000000001E-003
     PreviousTime =    4.0000000000000001E-003
     FinalTime    =    6.0000000000000001E-003
 MyTimeModule:UpdateLoads: Finishing
 MyTimeModule:MyTimeStepper: Calling SolveEquations
    Transient =  T
SingleSolver: Attempting to call solver
SingleSolver: Solver Equation string is: nonlinear elasticity
ElasticSolve: 
ElasticSolve: 
ElasticSolve: -------------------------------------
ElasticSolve:  ELASTICITY ITERATION              1
ElasticSolve: -------------------------------------
ElasticSolve: 
ElasticSolve: Starting assembly...
DefUtils::DefaultDirichletBCs: Setting Dirichlet boundary conditions
DefUtils::DefaultDirichletBCs: Dirichlet boundary conditions set
       1 0.2997E+00
       2 0.2065E+00
       3 0.1481E+00
       4 0.1150E+00
       5 0.8434E-01
       6 0.6167E-01
       7 0.4354E-01
       8 0.2914E-01
       9 0.2655E-01
      10 0.2533E-01
      11 0.2356E-01
      12 0.2129E-01
      13 0.1884E-01
      14 0.1674E-01
      15 0.1477E-01
      16 0.1296E-01
      17 0.1122E-01
      18 0.9838E-02
      19 0.8239E-02
      20 0.7090E-02
      21 0.6245E-02
      22 0.5693E-02
      23 0.5237E-02
      24 0.4910E-02
      25 0.4603E-02
      26 0.4317E-02
      27 0.4028E-02
      28 0.3753E-02
      29 0.3505E-02
      30 0.3277E-02
      31 0.3058E-02
      32 0.2867E-02
      33 0.2659E-02
      34 0.2458E-02
      35 0.2292E-02
      36 0.2157E-02
      37 0.2030E-02
      38 0.1917E-02
      39 0.1815E-02
      40 0.1699E-02
      41 0.1597E-02
      42 0.1484E-02
      43 0.1397E-02
      44 0.1297E-02
      45 0.1206E-02
      46 0.1118E-02
      47 0.1024E-02
      48 0.9471E-03
      49 0.8729E-03
      50 0.8123E-03
      51 0.7575E-03
      52 0.6963E-03
      53 0.6415E-03
      54 0.5619E-03
      55 0.3894E-03
      56 0.3289E-03
      57 0.2001E-03
      58 0.1819E-03
      59 0.1773E-03
      60 0.1514E-03
      61 0.1377E-03
      62 0.1470E-03
      63 0.1082E-02
      64 0.8438E-04
      65 0.6981E-04
      66 0.4785E-04
      67 0.4597E-04
      68 0.3178E-04
      69 0.2533E-04
      70 0.2218E-04
      71 0.1778E-04
      72 0.1247E-04
      73 0.1222E-04
      74 0.1093E-04
      75 0.8998E-05
      76 0.7165E-05
      77 0.5369E-05
      78 0.4712E-05
      79 0.4405E-05
      80 0.3469E-05
      81 0.2918E-05
      82 0.2513E-05
      83 0.2027E-05
      84 0.1567E-05
      85 0.1495E-05
      86 0.1317E-05
      87 0.1156E-05
      88 0.1049E-05
      89 0.9483E-06
      89 0.9483E-06
ComputeChange: NS (ITER=1) (NRM,RELC): ( 0.11952239E-05 0.97708776     ) :: nonlinear elasticity
ElasticSolve: Computing postprocessing fields
ElasticSolve: Stress Component 11
       1 0.7657E-01
       2 0.1306E-01
       3 0.1304E-02
       4 0.4211E-03
       5 0.1485E-03
       6 0.4832E-04
       7 0.1698E-04
       8 0.6505E-05
       9 0.2769E-05
      10 0.1130E-05
      11 0.3988E-06
      11 0.3988E-06
ComputeStressAndStrain: Solution Norm:  1.4778228
ElasticSolve: Stress Component 22
       1 0.1095E+00
       2 0.1887E-01
       3 0.2078E-02
       4 0.5699E-03
       5 0.2111E-03
       6 0.8309E-04
       7 0.3272E-04
       8 0.1243E-04
       9 0.4764E-05
      10 0.1889E-05
      11 0.6918E-06
      11 0.6918E-06
ComputeStressAndStrain: Solution Norm:  1.3532830
ElasticSolve: Stress Component 33
       1 0.3782E-01
       2 0.4396E-02
       3 0.1074E-02
       4 0.4151E-03
       5 0.1194E-03
       6 0.3899E-04
       7 0.1354E-04
       8 0.4718E-05
       9 0.2018E-05
      10 0.8248E-06
      10 0.8248E-06
ComputeStressAndStrain: Solution Norm:  2.5379950
ElasticSolve: Stress Component 12
       1 0.1678E+00
       2 0.4599E-01
       3 0.8284E-02
       4 0.2009E-02
       5 0.6926E-03
       6 0.2660E-03
       7 0.9645E-04
       8 0.3453E-04
       9 0.1015E-04
      10 0.3039E-05
      11 0.1264E-05
      12 0.4784E-06
      12 0.4784E-06
ComputeStressAndStrain: Solution Norm: 0.37113425E-10
ElasticSolve: Stress Component 23
       1 0.2102E-01
       2 0.3810E-02
       3 0.1217E-02
       4 0.2980E-03
       5 0.8161E-04
       6 0.1543E-04
       7 0.3352E-05
       8 0.5694E-06
       8 0.5694E-06
ComputeStressAndStrain: Solution Norm: 0.76002247
ElasticSolve: Stress Component 13
       1 0.6221E-01
       2 0.5695E-02
       3 0.1231E-02
       4 0.3541E-03
       5 0.1562E-03
       6 0.6817E-04
       7 0.2877E-04
       8 0.9701E-05
       9 0.2807E-05
      10 0.1150E-05
      11 0.5028E-06
      11 0.5028E-06
ComputeStressAndStrain: Solution Norm: 0.82414066E-10
ElasticSolve: Displacing the mesh with computed displacement field
ElasticSolver: All done
ElasticSolver: ------------------------------------------
SingleSolver: Attempting to call solver
SingleSolver: Solver Equation string is: internalvtuoutputsolver
ResultOutputSolver: -------------------------------------
ResultOutputSolver: Dimension of mesh: 3
ResultOutputSolver: Saving in unstructured VTK XML (.vtu) format
WriteVtuFile: Writing body and BC indexes
ResultOutputSolver: -------------------------------------
 SolverModule:UpdateDisplacements: Reporting displacements to the fluid solver
 SolverModule:Run: runs =            1
 SolverModule:Run: CurrentModel%GetTestLoads =  F
 SolverModule:Run: CurrentModel%UDFUsed =  T
ElmerFoamDriver:Run: Converged at time(0.006)
ElmerFoamDriver:Run: System timestep 4 @ Time = 0.006
ElmerFoamDriver:Run: Transferring displacements from structures to fluids @ time(0.006)
ElmerFoamDriver:TransferDisplacementsToFluid: Solid displacements for node 0: 
-3.27836e-45 -1.54455e-06 -9.3018e-08
ElmerFoamDriver:TransferDisplacementsToFluid: Fluid displacements for node 0: 
-3.27836e-45 -1.54455e-06 -9.3018e-08
ElmerFoamDriver:Run: Stepping fluids to time(0.008)
FsiFoam:StepFluid: Stepping fluid solver...
FsiFoam:StepFluid: Time = 0.003
FsiFoam:ReadFSIControl: Selecting coupling scheme Aitken
FsiFoam:ReadFSIControl: outerCorrTolerance = 0.0001
FsiFoam:ReadFSIControl: FSI IS ENABLED.
FsiFoam:StepFluidNonItr: outerCorr = 1
FsiFoam:StepFluidNonItr: Time = 0.004, iteration: 1
FsiFoam:UpdateFSISurface: Reporting solid displacements to the fluid solver
FsiFoam:StepFluidNonItr: Maximal accumulated displacement of interface points: 0.000263263
FsiFoam:StepFluidNonItr: Moving only interface...Compensating for mesh movment !
FsiFoam:StepFluidNonItr: Courant Number mean: 3.33219e-08 max: 0.000224578 velocity magnitude: 0.00202147
DILUPBiCG:  Solving for Uy, Initial residual = 0.341319, Final residual = 3.5704e-12, No Iterations 2
DILUPBiCG:  Solving for Uz, Initial residual = 0.274263, Final residual = 7.30512e-07, No Iterations 1
GAMG:  Solving for p, Initial residual = 0.585365, Final residual = 0.389617, No Iterations 1000
GAMG:  Solving for p, Initial residual = 0.373704, Final residual = 0.375042, No Iterations 1000
FsiFoam:StepFluidNonItr: time step continuity errors : sum local = 7.56772e-19, global = -9.7578e-20, cumulative = -5.49329e-19
GAMG:  Solving for p, Initial residual = 0.357532, Final residual = 0.351644, No Iterations 1000
GAMG:  Solving for p, Initial residual = 0.37275, Final residual = 0.387093, No Iterations 1000
FsiFoam:StepFluidNonItr: time step continuity errors : sum local = 7.63299e-19, global = -7.18282e-20, cumulative = -6.21157e-19
FsiFoam:StepFluid: ExecutionTime = 7.06 s  ClockTime = 7 s
FsiFoam:UpdateFSISurface: Reporting surface loads to the solid solver 
ElmerFoamDriver:TransferLoadsToStructures: Transfering loads to the structures solver.
ElmerFoamDriver:Run: Stepping structures to time(0.008)
 MyTimeModule:MyTimeStepper: Timesteps(interval) =            0
 MyTimeModule:MyTimeStepper: Timesteps(interval) =            1
MAIN: 
MAIN: -------------------------------------
MAIN:  Time: 1/4   4.0000000000000001E-003
MAIN: -------------------------------------
MAIN: 
 MyTimeModule:UpdateLoads: Updating loads on the structure
 MyTimeModule:UpdateLoads: Time Step Summary 
     sTime(1)     =    4.0000000000000001E-003
     PreviousTime =    6.0000000000000001E-003
     FinalTime    =    8.0000000000000002E-003
 MyTimeModule:UpdateLoads: Finishing
 MyTimeModule:MyTimeStepper: Calling SolveEquations
    Transient =  T
SingleSolver: Attempting to call solver
SingleSolver: Solver Equation string is: nonlinear elasticity
ElasticSolve: 
ElasticSolve: 
ElasticSolve: -------------------------------------
ElasticSolve:  ELASTICITY ITERATION              1
ElasticSolve: -------------------------------------
ElasticSolve: 
ElasticSolve: Starting assembly...
DefUtils::DefaultDirichletBCs: Setting Dirichlet boundary conditions
DefUtils::DefaultDirichletBCs: Dirichlet boundary conditions set
       1 0.2182E+00
       2 0.1601E+00
       3 0.1018E+00
       4 0.8122E-01
       5 0.6057E-01
       6 0.4602E-01
       7 0.2124E-01
       8 0.1036E-01
       9 0.9216E-02
      10 0.8855E-02
      11 0.8394E-02
      12 0.7752E-02
      13 0.7165E-02
      14 0.6739E-02
      15 0.6377E-02
      16 0.6021E-02
      17 0.5526E-02
      18 0.5002E-02
      19 0.4245E-02
      20 0.3464E-02
      21 0.2821E-02
      22 0.2351E-02
      23 0.2019E-02
      24 0.1798E-02
      25 0.1649E-02
      26 0.1574E-02
      27 0.1511E-02
      28 0.1458E-02
      29 0.1414E-02
      30 0.1373E-02
      31 0.1333E-02
      32 0.1294E-02
      33 0.1245E-02
      34 0.1182E-02
      35 0.1110E-02
      36 0.1040E-02
      37 0.9642E-03
      38 0.8920E-03
      39 0.8182E-03
      40 0.7292E-03
      41 0.6345E-03
      42 0.5276E-03
      43 0.4498E-03
      44 0.3848E-03
      45 0.3302E-03
      46 0.2938E-03
      47 0.2503E-03
      48 0.2211E-03
      49 0.1962E-03
      50 0.1805E-03
      51 0.1709E-03
      52 0.1613E-03
      53 0.1532E-03
      54 0.1443E-03
      55 0.1356E-03
      56 0.1272E-03
      57 0.3110E-03
      58 0.8841E-04
      59 0.7416E-04
      60 0.6965E-04
      61 0.6064E-04
      62 0.4846E-04
      63 0.4148E-04
      64 0.3992E-04
      65 0.1716E-04
      66 0.1306E-04
      67 0.3674E-05
      68 0.8837E-05
      69 0.6033E-05
      70 0.5798E-05
      71 0.3944E-05
      72 0.3260E-05
      73 0.8799E-06
      73 0.8799E-06
ComputeChange: NS (ITER=1) (NRM,RELC): ( 0.24658670E-05 0.69413362     ) :: nonlinear elasticity
ElasticSolve: Computing postprocessing fields
ElasticSolve: Stress Component 11
       1 0.5924E-01
       2 0.6036E-02
       3 0.1247E-02
       4 0.4484E-03
       5 0.1581E-03
       6 0.5289E-04
       7 0.1908E-04
       8 0.6843E-05
       9 0.2740E-05
      10 0.1054E-05
      11 0.3436E-06
      11 0.3436E-06
ComputeStressAndStrain: Solution Norm:  2.4610248
ElasticSolve: Stress Component 22
       1 0.1319E+00
       2 0.2140E-01
       3 0.2415E-02
       4 0.5998E-03
       5 0.2118E-03
       6 0.8621E-04
       7 0.3458E-04
       8 0.1313E-04
       9 0.5011E-05
      10 0.2018E-05
      11 0.7444E-06
      11 0.7444E-06
ComputeStressAndStrain: Solution Norm:  2.0561086
ElasticSolve: Stress Component 33
       1 0.2686E-01
       2 0.3493E-02
       3 0.8837E-03
       4 0.3577E-03
       5 0.1042E-03
       6 0.3325E-04
       7 0.1148E-04
       8 0.4128E-05
       9 0.1747E-05
      10 0.6830E-06
      10 0.6830E-06
ComputeStressAndStrain: Solution Norm:  4.4015123
ElasticSolve: Stress Component 12
       1 0.1672E+00
       2 0.4188E-01
       3 0.1917E-01
       4 0.7943E-02
       5 0.2345E-02
       6 0.5722E-03
       7 0.1481E-03
       8 0.4898E-04
       9 0.2242E-04
      10 0.9665E-05
      11 0.5471E-05
      12 0.3836E-05
      13 0.2815E-05
      14 0.1784E-05
      15 0.1158E-05
      16 0.8069E-06
      16 0.8069E-06
ComputeStressAndStrain: Solution Norm: 0.12914324E-11
ElasticSolve: Stress Component 23
       1 0.2274E-01
       2 0.3899E-02
       3 0.1133E-02
       4 0.2580E-03
       5 0.6063E-04
       6 0.9059E-05
       7 0.1728E-05
       8 0.4008E-06
       8 0.4008E-06
ComputeStressAndStrain: Solution Norm:  1.0925123
ElasticSolve: Stress Component 13
       1 0.3136E-01
       2 0.4650E-02
       3 0.8134E-03
       4 0.2811E-03
       5 0.9779E-04
       6 0.2998E-04
       7 0.7975E-05
       8 0.2188E-05
       9 0.9106E-06
       9 0.9106E-06
ComputeStressAndStrain: Solution Norm: 0.32283014E-11
ElasticSolve: Displacing the mesh with computed displacement field
ElasticSolver: All done
ElasticSolver: ------------------------------------------
SingleSolver: Attempting to call solver
SingleSolver: Solver Equation string is: internalvtuoutputsolver
ResultOutputSolver: -------------------------------------
ResultOutputSolver: Dimension of mesh: 3
ResultOutputSolver: Saving in unstructured VTK XML (.vtu) format
WriteVtuFile: Writing body and BC indexes
ResultOutputSolver: -------------------------------------
 SolverModule:UpdateDisplacements: Reporting displacements to the fluid solver
 SolverModule:Run: runs =            1
 SolverModule:Run: CurrentModel%GetTestLoads =  F
 SolverModule:Run: CurrentModel%UDFUsed =  T
ElmerFoamDriver:Run: Converged at time(0.008)
ElmerFoamDriver:Run: System timestep 5 @ Time = 0.008
ElmerFoamDriver:Run: Transferring displacements from structures to fluids @ time(0.008)
ElmerFoamDriver:TransferDisplacementsToFluid: Solid displacements for node 0: 
4.19932e-52 -2.52849e-06 -8.24217e-08
ElmerFoamDriver:TransferDisplacementsToFluid: Fluid displacements for node 0: 
4.19932e-52 -2.52849e-06 -8.24217e-08
ElmerFoamDriver:Run: Stepping fluids to time(0.01)
FsiFoam:StepFluid: Stepping fluid solver...
FsiFoam:StepFluid: Time = 0.004
FsiFoam:ReadFSIControl: Selecting coupling scheme Aitken
FsiFoam:ReadFSIControl: outerCorrTolerance = 0.0001
FsiFoam:ReadFSIControl: FSI IS ENABLED.
FsiFoam:StepFluidNonItr: outerCorr = 1
FsiFoam:StepFluidNonItr: Time = 0.005, iteration: 1
FsiFoam:UpdateFSISurface: Reporting solid displacements to the fluid solver
FsiFoam:StepFluidNonItr: Maximal accumulated displacement of interface points: 0.000554986
FsiFoam:StepFluidNonItr: Moving only interface...Compensating for mesh movment !
FsiFoam:StepFluidNonItr: Courant Number mean: 4.84752e-08 max: 0.000352923 velocity magnitude: 0.00317718
DILUPBiCG:  Solving for Uy, Initial residual = 0.432578, Final residual = 4.59919e-12, No Iterations 2
DILUPBiCG:  Solving for Uz, Initial residual = 0.491258, Final residual = 3.77674e-12, No Iterations 2
GAMG:  Solving for p, Initial residual = 0.561777, Final residual = 0.350842, No Iterations 1000
GAMG:  Solving for p, Initial residual = 0.361572, Final residual = 0.381042, No Iterations 1000
FsiFoam:StepFluidNonItr: time step continuity errors : sum local = 7.08847e-19, global = -2.68038e-20, cumulative = -6.47961e-19
GAMG:  Solving for p, Initial residual = 0.346434, Final residual = 0.364938, No Iterations 1000
GAMG:  Solving for p, Initial residual = 0.389938, Final residual = 0.359461, No Iterations 1000
FsiFoam:StepFluidNonItr: time step continuity errors : sum local = 7.14715e-19, global = -5.64686e-20, cumulative = -7.04429e-19
FsiFoam:StepFluid: ExecutionTime = 8.79 s  ClockTime = 9 s
FsiFoam:UpdateFSISurface: Reporting surface loads to the solid solver 
ElmerFoamDriver:TransferLoadsToStructures: Transfering loads to the structures solver.
ElmerFoamDriver:Run: Stepping structures to time(0.01)
 MyTimeModule:MyTimeStepper: Timesteps(interval) =            0
 MyTimeModule:MyTimeStepper: Timesteps(interval) =            1
MAIN: 
MAIN: -------------------------------------
MAIN:  Time: 1/5   5.0000000000000001E-003
MAIN: -------------------------------------
MAIN: 
 MyTimeModule:UpdateLoads: Updating loads on the structure
 MyTimeModule:UpdateLoads: Time Step Summary 
     sTime(1)     =    5.0000000000000001E-003
     PreviousTime =    8.0000000000000002E-003
     FinalTime    =    1.0000000000000000E-002
 MyTimeModule:UpdateLoads: Finishing
 MyTimeModule:MyTimeStepper: Calling SolveEquations
    Transient =  T
SingleSolver: Attempting to call solver
SingleSolver: Solver Equation string is: nonlinear elasticity
ElasticSolve: 
ElasticSolve: 
ElasticSolve: -------------------------------------
ElasticSolve:  ELASTICITY ITERATION              1
ElasticSolve: -------------------------------------
ElasticSolve: 
ElasticSolve: Starting assembly...
DefUtils::DefaultDirichletBCs: Setting Dirichlet boundary conditions
DefUtils::DefaultDirichletBCs: Dirichlet boundary conditions set
       1 0.1611E+00
       2 0.1192E+00
       3 0.7355E-01
       4 0.6246E-01
       5 0.3770E-01
       6 0.1978E-01
       7 0.9067E-02
       8 0.6471E-02
       9 0.5434E-02
      10 0.5083E-02
      11 0.4476E-02
      12 0.3952E-02
      13 0.3609E-02
      14 0.3325E-02
      15 0.3112E-02
      16 0.2975E-02
      17 0.2796E-02
      18 0.2585E-02
      19 0.2298E-02
      20 0.2097E-02
      21 0.1912E-02
      22 0.1758E-02
      23 0.1633E-02
      24 0.1509E-02
      25 0.1371E-02
      26 0.1205E-02
      27 0.1058E-02
      28 0.9113E-03
      29 0.7873E-03
      30 0.6746E-03
      31 0.5940E-03
      32 0.5399E-03
      33 0.4900E-03
      34 0.4573E-03
      35 0.4280E-03
      36 0.4051E-03
      37 0.3881E-03
      38 0.3746E-03
      39 0.3604E-03
      40 0.3427E-03
      41 0.3229E-03
      42 0.3011E-03
      43 0.2806E-03
      44 0.2634E-03
      45 0.2474E-03
      46 0.2325E-03
      47 0.2123E-03
      48 0.1928E-03
      49 0.1693E-03
      50 0.1501E-03
      51 0.1315E-03
      52 0.1195E-03
      53 0.1068E-03
      54 0.9513E-04
      55 0.8399E-04
      56 0.7356E-04
      57 0.6433E-04
      58 0.5496E-04
      59 0.4748E-04
      60 0.4292E-04
      61 0.3693E-04
      62 0.3423E-04
      63 0.3142E-04
      64 0.2228E-04
      65 0.2053E-04
      66 0.2582E-04
      67 0.1250E-04
      68 0.2015E-04
      69 0.4738E-05
      70 0.4242E-05
      71 0.1810E-05
      72 0.2056E-05
      73 0.1613E-05
      74 0.1104E-05
      75 0.9136E-06
      75 0.9136E-06
ComputeChange: NS (ITER=1) (NRM,RELC): ( 0.42010060E-05 0.52052557     ) :: nonlinear elasticity
ElasticSolve: Computing postprocessing fields
ElasticSolve: Stress Component 11
       1 0.4837E-01
       2 0.4886E-02
       3 0.1095E-02
       4 0.4182E-03
       5 0.1481E-03
       6 0.4950E-04
       7 0.1753E-04
       8 0.6197E-05
       9 0.2545E-05
      10 0.1021E-05
      11 0.3534E-06
      11 0.3534E-06
ComputeStressAndStrain: Solution Norm:  3.5160015
ElasticSolve: Stress Component 22
       1 0.1383E+00
       2 0.2087E-01
       3 0.2463E-02
       4 0.5805E-03
       5 0.1988E-03
       6 0.8245E-04
       7 0.3365E-04
       8 0.1294E-04
       9 0.4869E-05
      10 0.1946E-05
      11 0.7242E-06
      11 0.7242E-06
ComputeStressAndStrain: Solution Norm:  2.7870542
ElasticSolve: Stress Component 33
       1 0.2890E-01
       2 0.2921E-02
       3 0.7390E-03
       4 0.2872E-03
       5 0.8462E-04
       6 0.2766E-04
       7 0.9411E-05
       8 0.3139E-05
       9 0.1285E-05
      10 0.5047E-06
      10 0.5047E-06
ComputeStressAndStrain: Solution Norm:  6.4298596
ElasticSolve: Stress Component 12
       1 0.1579E+00
       2 0.3751E-01
       3 0.1205E-01
       4 0.2367E-02
       5 0.6793E-03
       6 0.2074E-03
       7 0.9010E-04
       8 0.4468E-04
       9 0.2621E-04
      10 0.1800E-04
      11 0.1299E-04
      12 0.9065E-05
      13 0.6463E-05
      14 0.4448E-05
      15 0.2918E-05
      16 0.1552E-05
      17 0.7653E-06
      17 0.7653E-06
ComputeStressAndStrain: Solution Norm: 0.34407757E-12
ElasticSolve: Stress Component 23
       1 0.2429E-01
       2 0.4016E-02
       3 0.1112E-02
       4 0.2471E-03
       5 0.5528E-04
       6 0.8697E-05
       7 0.1696E-05
       8 0.4076E-06
       8 0.4076E-06
ComputeStressAndStrain: Solution Norm:  1.3953580
ElasticSolve: Stress Component 13
       1 0.1214E+00
       2 0.1936E-01
       3 0.2160E-02
       4 0.4499E-03
       5 0.1821E-03
       6 0.8595E-04
       7 0.3786E-04
       8 0.1680E-04
       9 0.6388E-05
      10 0.2519E-05
      11 0.1297E-05
      12 0.7979E-06
      12 0.7979E-06
ComputeStressAndStrain: Solution Norm: 0.34170815E-12
ElasticSolve: Displacing the mesh with computed displacement field
ElasticSolver: All done
ElasticSolver: ------------------------------------------
SingleSolver: Attempting to call solver
SingleSolver: Solver Equation string is: internalvtuoutputsolver
ResultOutputSolver: -------------------------------------
ResultOutputSolver: Dimension of mesh: 3
ResultOutputSolver: Saving in unstructured VTK XML (.vtu) format
WriteVtuFile: Writing body and BC indexes
ResultOutputSolver: -------------------------------------
 SolverModule:UpdateDisplacements: Reporting displacements to the fluid solver
 SolverModule:Run: runs =            1
 SolverModule:Run: CurrentModel%GetTestLoads =  F
 SolverModule:Run: CurrentModel%UDFUsed =  T
ElmerFoamDriver:Run: Converged at time(0.01)
ElmerFoamDriver:Run: System timestep 6 @ Time = 0.01
ElmerFoamDriver:Run: Transferring displacements from structures to fluids @ time(0.01)
ElmerFoamDriver:TransferDisplacementsToFluid: Solid displacements for node 0: 
-5.0554e-65 -3.48545e-06 -5.26278e-08
ElmerFoamDriver:TransferDisplacementsToFluid: Fluid displacements for node 0: 
-5.0554e-65 -3.48545e-06 -5.26278e-08
ElmerFoamDriver:Run: Stepping fluids to time(0.012)
FsiFoam:StepFluid: Stepping fluid solver...
FsiFoam:StepFluid: Time = 0.005
FsiFoam:ReadFSIControl: Selecting coupling scheme Aitken
FsiFoam:ReadFSIControl: outerCorrTolerance = 0.0001
FsiFoam:ReadFSIControl: FSI IS ENABLED.
FsiFoam:StepFluidNonItr: outerCorr = 1
FsiFoam:StepFluidNonItr: Time = 0.006, iteration: 1
FsiFoam:UpdateFSISurface: Reporting solid displacements to the fluid solver
FsiFoam:StepFluidNonItr: Maximal accumulated displacement of interface points: 0.000968082
FsiFoam:StepFluidNonItr: Moving only interface...Compensating for mesh movment !
FsiFoam:StepFluidNonItr: Courant Number mean: 5.5309e-08 max: 0.000480482 velocity magnitude: 0.00432642
DILUPBiCG:  Solving for Uy, Initial residual = 0.289725, Final residual = 4.32257e-12, No Iterations 2
DILUPBiCG:  Solving for Uz, Initial residual = 0.277407, Final residual = 3.6392e-12, No Iterations 2
GAMG:  Solving for p, Initial residual = 0.54633, Final residual = 0.346473, No Iterations 1000
GAMG:  Solving for p, Initial residual = 0.355024, Final residual = 0.383922, No Iterations 1000
FsiFoam:StepFluidNonItr: time step continuity errors : sum local = 6.90801e-19, global = -6.29435e-20, cumulative = -7.67373e-19
GAMG:  Solving for p, Initial residual = 0.41428, Final residual = 0.413001, No Iterations 1000
GAMG:  Solving for p, Initial residual = 0.408131, Final residual = 0.408774, No Iterations 1000
FsiFoam:StepFluidNonItr: time step continuity errors : sum local = 6.95203e-19, global = -7.19784e-20, cumulative = -8.39351e-19
FsiFoam:StepFluid: ExecutionTime = 10.51 s  ClockTime = 11 s
FsiFoam:UpdateFSISurface: Reporting surface loads to the solid solver 
ElmerFoamDriver:TransferLoadsToStructures: Transfering loads to the structures solver.
ElmerFoamDriver:Run: Stepping structures to time(0.012)
 MyTimeModule:MyTimeStepper: Timesteps(interval) =            0
 MyTimeModule:MyTimeStepper: Timesteps(interval) =            1
MAIN: 
MAIN: -------------------------------------
MAIN:  Time: 1/6   6.0000000000000001E-003
MAIN: -------------------------------------
MAIN: 
 MyTimeModule:UpdateLoads: Updating loads on the structure
 MyTimeModule:UpdateLoads: Time Step Summary 
     sTime(1)     =    6.0000000000000001E-003
     PreviousTime =    1.0000000000000000E-002
     FinalTime    =    1.2000000000000000E-002
 MyTimeModule:UpdateLoads: Finishing
 MyTimeModule:MyTimeStepper: Calling SolveEquations
    Transient =  T
SingleSolver: Attempting to call solver
SingleSolver: Solver Equation string is: nonlinear elasticity
ElasticSolve: 
ElasticSolve: 
ElasticSolve: -------------------------------------
ElasticSolve:  ELASTICITY ITERATION              1
ElasticSolve: -------------------------------------
ElasticSolve: 
ElasticSolve: Starting assembly...
DefUtils::DefaultDirichletBCs: Setting Dirichlet boundary conditions
DefUtils::DefaultDirichletBCs: Dirichlet boundary conditions set
       1 0.1245E+00
       2 0.9838E-01
       3 0.5605E-01
       4 0.4476E-01
       5 0.1692E-01
       6 0.9296E-02
       7 0.6225E-02
       8 0.5272E-02
       9 0.4647E-02
      10 0.4205E-02
      11 0.3587E-02
      12 0.3061E-02
      13 0.2713E-02
      14 0.2435E-02
      15 0.2177E-02
      16 0.2032E-02
      17 0.1844E-02
      18 0.1649E-02
      19 0.1413E-02
      20 0.1236E-02
      21 0.1065E-02
      22 0.9233E-03
      23 0.8194E-03
      24 0.7329E-03
      25 0.6528E-03
      26 0.5339E-03
      27 0.4478E-03
      28 0.3627E-03
      29 0.2975E-03
      30 0.2652E-03
      31 0.2420E-03
      32 0.2149E-03
      33 0.1893E-03
      34 0.1695E-03
      35 0.1551E-03
      36 0.1428E-03
      37 0.1330E-03
      38 0.1246E-03
      39 0.1170E-03
      40 0.1094E-03
      41 0.1027E-03
      42 0.9764E-04
      43 0.9254E-04
      44 0.8862E-04
      45 0.8428E-04
      46 0.8016E-04
      47 0.7521E-04
      48 0.7061E-04
      49 0.6646E-04
      50 0.6277E-04
      51 0.5897E-04
      52 0.5558E-04
      53 0.5265E-04
      54 0.4997E-04
      55 0.4679E-04
      56 0.4400E-04
      57 0.4079E-04
      58 0.3830E-04
      59 0.3491E-04
      60 0.3145E-04
      61 0.2794E-04
      62 0.2508E-04
      63 0.2300E-04
      64 0.1066E-04
      65 0.8288E-05
      66 0.8123E-05
      67 0.6457E-05
      68 0.5410E-05
      69 0.4721E-05
      70 0.4979E-05
      71 0.3342E-05
      72 0.2342E-05
      73 0.2264E-05
      74 0.2379E-05
      75 0.3525E-05
      76 0.3245E-05
      77 0.6855E-06
      77 0.6855E-06
ComputeChange: NS (ITER=1) (NRM,RELC): ( 0.63799795E-05 0.41186590     ) :: nonlinear elasticity
ElasticSolve: Computing postprocessing fields
ElasticSolve: Stress Component 11
       1 0.4318E-01
       2 0.4559E-02
       3 0.1091E-02
       4 0.4028E-03
       5 0.1370E-03
       6 0.4380E-04
       7 0.1480E-04
       8 0.5390E-05
       9 0.2308E-05
      10 0.9634E-06
      10 0.9634E-06
ComputeStressAndStrain: Solution Norm:  4.6163580
ElasticSolve: Stress Component 22
       1 0.1387E+00
       2 0.1919E-01
       3 0.2389E-02
       4 0.5660E-03
       5 0.1888E-03
       6 0.7712E-04
       7 0.3144E-04
       8 0.1196E-04
       9 0.4619E-05
      10 0.1870E-05
      11 0.6865E-06
      11 0.6865E-06
ComputeStressAndStrain: Solution Norm:  3.5413200
ElasticSolve: Stress Component 33
       1 0.2653E-01
       2 0.2624E-02
       3 0.6602E-03
       4 0.2575E-03
       5 0.7647E-04
       6 0.2490E-04
       7 0.8420E-05
       8 0.2805E-05
       9 0.1154E-05
      10 0.4610E-06
      10 0.4610E-06
ComputeStressAndStrain: Solution Norm:  8.5520814
ElasticSolve: Stress Component 12
       1 0.1639E+00
       2 0.4058E-01
       3 0.1318E-01
       4 0.2642E-02
       5 0.7825E-03
       6 0.2782E-03
       7 0.1394E-03
       8 0.7844E-04
       9 0.4619E-04
      10 0.2928E-04
      11 0.1978E-04
      12 0.1418E-04
      13 0.1032E-04
      14 0.6900E-05
      15 0.4248E-05
      16 0.2204E-05
      17 0.1248E-05
      18 0.7606E-06
      18 0.7606E-06
ComputeStressAndStrain: Solution Norm: 0.46328861E-12
ElasticSolve: Stress Component 23
       1 0.2559E-01
       2 0.4100E-02
       3 0.1083E-02
       4 0.2409E-03
       5 0.5210E-04
       6 0.8488E-05
       7 0.1617E-05
       8 0.4070E-06
       8 0.4070E-06
ComputeStressAndStrain: Solution Norm:  1.6796989
ElasticSolve: Stress Component 13
       1 0.1145E+00
       2 0.2056E-01
       3 0.2208E-02
       4 0.4005E-03
       5 0.1390E-03
       6 0.6357E-04
       7 0.2882E-04
       8 0.1353E-04
       9 0.6143E-05
      10 0.3288E-05
      11 0.2255E-05
      12 0.1649E-05
      13 0.1229E-05
      14 0.9233E-06
      14 0.9233E-06
ComputeStressAndStrain: Solution Norm: 0.46785812E-12
ElasticSolve: Displacing the mesh with computed displacement field
ElasticSolver: All done
ElasticSolver: ------------------------------------------
SingleSolver: Attempting to call solver
SingleSolver: Solver Equation string is: internalvtuoutputsolver
ResultOutputSolver: -------------------------------------
ResultOutputSolver: Dimension of mesh: 3
ResultOutputSolver: Saving in unstructured VTK XML (.vtu) format
WriteVtuFile: Writing body and BC indexes
ResultOutputSolver: -------------------------------------
 SolverModule:UpdateDisplacements: Reporting displacements to the fluid solver
 SolverModule:Run: runs =            1
 SolverModule:Run: CurrentModel%GetTestLoads =  F
 SolverModule:Run: CurrentModel%UDFUsed =  T
ElmerFoamDriver:Run: Converged at time(0.012)
ElmerFoamDriver:Run: System timestep 7 @ Time = 0.012
ElmerFoamDriver:Run: Transferring displacements from structures to fluids @ time(0.012)
ElmerFoamDriver:TransferDisplacementsToFluid: Solid displacements for node 0: 
-2.95582e-80 -4.37543e-06 3.62152e-08
ElmerFoamDriver:TransferDisplacementsToFluid: Fluid displacements for node 0: 
-2.95582e-80 -4.37543e-06 3.62152e-08
ElmerFoamDriver:Run: Stepping fluids to time(0.014)
FsiFoam:StepFluid: Stepping fluid solver...
FsiFoam:StepFluid: Time = 0.006
FsiFoam:ReadFSIControl: Selecting coupling scheme Aitken
FsiFoam:ReadFSIControl: outerCorrTolerance = 0.0001
FsiFoam:ReadFSIControl: FSI IS ENABLED.
FsiFoam:StepFluidNonItr: outerCorr = 1
FsiFoam:StepFluidNonItr: Time = 0.007, iteration: 1
FsiFoam:UpdateFSISurface: Reporting solid displacements to the fluid solver
FsiFoam:StepFluidNonItr: Maximal accumulated displacement of interface points: 0.00150726
FsiFoam:StepFluidNonItr: Moving only interface...Compensating for mesh movment !
FsiFoam:StepFluidNonItr: Courant Number mean: 6.83739e-08 max: 0.00061683 velocity magnitude: 0.00555563
DILUPBiCG:  Solving for Uy, Initial residual = 0.280438, Final residual = 4.10853e-12, No Iterations 2
DILUPBiCG:  Solving for Uz, Initial residual = 0.272451, Final residual = 3.27803e-12, No Iterations 2
GAMG:  Solving for p, Initial residual = 0.574674, Final residual = 0.363869, No Iterations 1000
GAMG:  Solving for p, Initial residual = 0.375544, Final residual = 0.362122, No Iterations 1000
FsiFoam:StepFluidNonItr: time step continuity errors : sum local = 7.09802e-19, global = -9.27585e-20, cumulative = -9.3211e-19
GAMG:  Solving for p, Initial residual = 0.338402, Final residual = 0.326997, No Iterations 1000
GAMG:  Solving for p, Initial residual = 0.328506, Final residual = 0.413206, No Iterations 1000
FsiFoam:StepFluidNonItr: time step continuity errors : sum local = 7.34162e-19, global = -9.03492e-21, cumulative = -9.41145e-19
FsiFoam:StepFluid: ExecutionTime = 12.33 s  ClockTime = 12 s
FsiFoam:UpdateFSISurface: Reporting surface loads to the solid solver 
ElmerFoamDriver:TransferLoadsToStructures: Transfering loads to the structures solver.
ElmerFoamDriver:Run: Stepping structures to time(0.014)
 MyTimeModule:MyTimeStepper: Timesteps(interval) =            0
 MyTimeModule:MyTimeStepper: Timesteps(interval) =            1
MAIN: 
MAIN: -------------------------------------
MAIN:  Time: 1/7   7.0000000000000001E-003
MAIN: -------------------------------------
MAIN: 
 MyTimeModule:UpdateLoads: Updating loads on the structure
 MyTimeModule:UpdateLoads: Time Step Summary 
     sTime(1)     =    7.0000000000000001E-003
     PreviousTime =    1.2000000000000000E-002
     FinalTime    =    1.4000000000000000E-002
 MyTimeModule:UpdateLoads: Finishing
 MyTimeModule:MyTimeStepper: Calling SolveEquations
    Transient =  T
SingleSolver: Attempting to call solver
SingleSolver: Solver Equation string is: nonlinear elasticity
ElasticSolve: 
ElasticSolve: 
ElasticSolve: -------------------------------------
ElasticSolve:  ELASTICITY ITERATION              1
ElasticSolve: -------------------------------------
ElasticSolve: 
ElasticSolve: Starting assembly...
DefUtils::DefaultDirichletBCs: Setting Dirichlet boundary conditions
DefUtils::DefaultDirichletBCs: Dirichlet boundary conditions set
       1 0.1031E+00
       2 0.1185E+00
       3 0.4643E-01
       4 0.3786E-01
       5 0.1251E-01
       6 0.6759E-02
       7 0.4817E-02
       8 0.3943E-02
       9 0.3427E-02
      10 0.3200E-02
      11 0.2874E-02
      12 0.2517E-02
      13 0.2173E-02
      14 0.1900E-02
      15 0.1701E-02
      16 0.1530E-02
      17 0.1350E-02
      18 0.1173E-02
      19 0.9676E-03
      20 0.7896E-03
      21 0.6243E-03
      22 0.5047E-03
      23 0.4190E-03
      24 0.3662E-03
      25 0.3245E-03
      26 0.2935E-03
      27 0.2712E-03
      28 0.2554E-03
      29 0.2423E-03
      30 0.2320E-03
      31 0.2216E-03
      32 0.2114E-03
      33 0.1992E-03
      34 0.1868E-03
      35 0.1741E-03
      36 0.1612E-03
      37 0.1505E-03
      38 0.1410E-03
      39 0.1314E-03
      40 0.1206E-03
      41 0.1101E-03
      42 0.1009E-03
      43 0.9204E-04
      44 0.8574E-04
      45 0.8001E-04
      46 0.7486E-04
      47 0.6853E-04
      48 0.6204E-04
      49 0.5586E-04
      50 0.5214E-04
      51 0.4784E-04
      52 0.3862E-04
      53 0.3234E-04
      54 0.2739E-04
      55 0.1999E-04
      56 0.1978E-04
      57 0.1941E-04
      58 0.1565E-04
      59 0.1389E-04
      60 0.1299E-04
      61 0.1169E-04
      62 0.1045E-04
      63 0.9429E-05
      64 0.6868E-05
      65 0.5700E-05
      66 0.2718E-03
      67 0.4048E-05
      68 0.3939E-05
      69 0.3731E-05
      70 0.2802E-05
      71 0.3032E-05
      72 0.1964E-05
      73 0.1408E-05
      74 0.9995E-06
      74 0.9995E-06
ComputeChange: NS (ITER=1) (NRM,RELC): ( 0.89853990E-05 0.33912858     ) :: nonlinear elasticity
ElasticSolve: Computing postprocessing fields
ElasticSolve: Stress Component 11
       1 0.4066E-01
       2 0.4297E-02
       3 0.1041E-02
       4 0.3632E-03
       5 0.1181E-03
       6 0.3591E-04
       7 0.1154E-04
       8 0.4184E-05
       9 0.1799E-05
      10 0.7660E-06
      10 0.7660E-06
ComputeStressAndStrain: Solution Norm:  5.7555945
ElasticSolve: Stress Component 22
       1 0.1374E+00
       2 0.1745E-01
       3 0.2292E-02
       4 0.5723E-03
       5 0.1928E-03
       6 0.7361E-04
       7 0.2847E-04
       8 0.1048E-04
       9 0.4254E-05
      10 0.1758E-05
      11 0.6209E-06
      11 0.6209E-06
ComputeStressAndStrain: Solution Norm:  4.3051935
ElasticSolve: Stress Component 33
       1 0.2217E-01
       2 0.2469E-02
       3 0.5704E-03
       4 0.2261E-03
       5 0.6767E-04
       6 0.2194E-04
       7 0.7441E-05
       8 0.2585E-05
       9 0.1106E-05
      10 0.4400E-06
      10 0.4400E-06
ComputeStressAndStrain: Solution Norm:  10.763818
ElasticSolve: Stress Component 12
       1 0.1703E+00
       2 0.3958E-01
       3 0.1242E-01
       4 0.2647E-02
       5 0.8739E-03
       6 0.3139E-03
       7 0.1429E-03
       8 0.7453E-04
       9 0.4538E-04
      10 0.3032E-04
      11 0.2119E-04
      12 0.1514E-04
      13 0.1121E-04
      14 0.7650E-05
      15 0.4872E-05
      16 0.2489E-05
      17 0.1324E-05
      18 0.7940E-06
      18 0.7940E-06
ComputeStressAndStrain: Solution Norm: 0.55657939E-12
ElasticSolve: Stress Component 23
       1 0.2682E-01
       2 0.4178E-02
       3 0.1063E-02
       4 0.2435E-03
       5 0.5146E-04
       6 0.9087E-05
       7 0.1678E-05
       8 0.4143E-06
       8 0.4143E-06
ComputeStressAndStrain: Solution Norm:  1.9435500
ElasticSolve: Stress Component 13
       1 0.1136E+00
       2 0.2154E-01
       3 0.2433E-02
       4 0.4128E-03
       5 0.1475E-03
       6 0.7083E-04
       7 0.3358E-04
       8 0.1649E-04
       9 0.7435E-05
      10 0.3205E-05
      11 0.1545E-05
      12 0.8985E-06
      12 0.8985E-06
ComputeStressAndStrain: Solution Norm: 0.56598624E-12
ElasticSolve: Displacing the mesh with computed displacement field
ElasticSolver: All done
ElasticSolver: ------------------------------------------
SingleSolver: Attempting to call solver
SingleSolver: Solver Equation string is: internalvtuoutputsolver
ResultOutputSolver: -------------------------------------
ResultOutputSolver: Dimension of mesh: 3
ResultOutputSolver: Saving in unstructured VTK XML (.vtu) format
WriteVtuFile: Writing body and BC indexes
ResultOutputSolver: -------------------------------------
 SolverModule:UpdateDisplacements: Reporting displacements to the fluid solver
 SolverModule:Run: runs =            1
 SolverModule:Run: CurrentModel%GetTestLoads =  F
 SolverModule:Run: CurrentModel%UDFUsed =  T
ElmerFoamDriver:Run: Converged at time(0.014)
ElmerFoamDriver:Run: System timestep 8 @ Time = 0.014
ElmerFoamDriver:Run: Transferring displacements from structures to fluids @ time(0.014)
ElmerFoamDriver:TransferDisplacementsToFluid: Solid displacements for node 0: 
1.38926e-89 -5.22143e-06 2.01646e-07
ElmerFoamDriver:TransferDisplacementsToFluid: Fluid displacements for node 0: 
1.38926e-89 -5.22143e-06 2.01646e-07
ElmerFoamDriver:Run: Stepping fluids to time(0.016)
FsiFoam:StepFluid: Stepping fluid solver...
FsiFoam:StepFluid: Time = 0.007
FsiFoam:ReadFSIControl: Selecting coupling scheme Aitken
FsiFoam:ReadFSIControl: outerCorrTolerance = 0.0001
FsiFoam:ReadFSIControl: FSI IS ENABLED.
FsiFoam:StepFluidNonItr: outerCorr = 1
FsiFoam:StepFluidNonItr: Time = 0.008, iteration: 1
FsiFoam:UpdateFSISurface: Reporting solid displacements to the fluid solver
FsiFoam:StepFluidNonItr: Maximal accumulated displacement of interface points: 0.0021772
FsiFoam:StepFluidNonItr: Moving only interface...Compensating for mesh movment !
FsiFoam:StepFluidNonItr: Courant Number mean: 8.73008e-08 max: 0.000755642 velocity magnitude: 0.00680813
DILUPBiCG:  Solving for Uy, Initial residual = 0.312798, Final residual = 4.21941e-12, No Iterations 2
DILUPBiCG:  Solving for Uz, Initial residual = 0.32351, Final residual = 8.7103e-07, No Iterations 1
GAMG:  Solving for p, Initial residual = 0.610265, Final residual = 0.328568, No Iterations 1000
GAMG:  Solving for p, Initial residual = 0.37234, Final residual = 0.369387, No Iterations 1000
FsiFoam:StepFluidNonItr: time step continuity errors : sum local = 6.98348e-19, global = -7.92057e-20, cumulative = -1.02035e-18
GAMG:  Solving for p, Initial residual = 0.334696, Final residual = 0.354796, No Iterations 1000
GAMG:  Solving for p, Initial residual = 0.390644, Final residual = 0.373099, No Iterations 1000
FsiFoam:StepFluidNonItr: time step continuity errors : sum local = 6.87858e-19, global = -6.26418e-20, cumulative = -1.08299e-18
FsiFoam:StepFluid: ExecutionTime = 14.06 s  ClockTime = 14 s
FsiFoam:UpdateFSISurface: Reporting surface loads to the solid solver 
ElmerFoamDriver:TransferLoadsToStructures: Transfering loads to the structures solver.
ElmerFoamDriver:Run: Stepping structures to time(0.016)
 MyTimeModule:MyTimeStepper: Timesteps(interval) =            0
 MyTimeModule:MyTimeStepper: Timesteps(interval) =            1
MAIN: 
MAIN: -------------------------------------
MAIN:  Time: 1/8   8.0000000000000002E-003
MAIN: -------------------------------------
MAIN: 
 MyTimeModule:UpdateLoads: Updating loads on the structure
 MyTimeModule:UpdateLoads: Time Step Summary 
     sTime(1)     =    8.0000000000000002E-003
     PreviousTime =    1.4000000000000000E-002
     FinalTime    =    1.6000000000000000E-002
 MyTimeModule:UpdateLoads: Finishing
 MyTimeModule:MyTimeStepper: Calling SolveEquations
    Transient =  T
SingleSolver: Attempting to call solver
SingleSolver: Solver Equation string is: nonlinear elasticity
ElasticSolve: 
ElasticSolve: 
ElasticSolve: -------------------------------------
ElasticSolve:  ELASTICITY ITERATION              1
ElasticSolve: -------------------------------------
ElasticSolve: 
ElasticSolve: Starting assembly...
DefUtils::DefaultDirichletBCs: Setting Dirichlet boundary conditions
DefUtils::DefaultDirichletBCs: Dirichlet boundary conditions set
       1 0.8876E-01
       2 0.1158E+00
       3 0.3995E-01
       4 0.3252E-01
       5 0.1669E-01
       6 0.9278E-02
       7 0.4581E-02
       8 0.3597E-02
       9 0.3014E-02
      10 0.2780E-02
      11 0.2471E-02
      12 0.2166E-02
      13 0.1837E-02
      14 0.1581E-02
      15 0.1400E-02
      16 0.1284E-02
      17 0.1175E-02
      18 0.1071E-02
      19 0.9510E-03
      20 0.8402E-03
      21 0.7264E-03
      22 0.6474E-03
      23 0.5889E-03
      24 0.5518E-03
      25 0.5139E-03
      26 0.4787E-03
      27 0.4448E-03
      28 0.4123E-03
      29 0.3801E-03
      30 0.3556E-03
      31 0.3335E-03
      32 0.3139E-03
      33 0.2937E-03
      34 0.2739E-03
      35 0.2541E-03
      36 0.2350E-03
      37 0.2198E-03
      38 0.2083E-03
      39 0.1981E-03
      40 0.1884E-03
      41 0.1788E-03
      42 0.1688E-03
      43 0.1584E-03
      44 0.1485E-03
      45 0.1401E-03
      46 0.1300E-03
      47 0.1182E-03
      48 0.1027E-03
      49 0.8788E-04
      50 0.7491E-04
      51 0.6518E-04
      52 0.5707E-04
      53 0.5141E-04
      54 0.4670E-04
      55 0.4261E-04
      56 0.4306E-04
      57 0.2680E-04
      58 0.2120E-04
      59 0.2103E-04
      60 0.2044E-04
      61 0.2048E-04
      62 0.1545E-04
      63 0.9708E-05
      64 0.6759E-05
      65 0.4936E-05
      66 0.4814E-05
      67 0.3450E-05
      68 0.3304E-05
      69 0.2832E-05
      70 0.1904E-05
      71 0.1794E-05
      72 0.1854E-05
      73 0.1793E-05
      74 0.1113E-05
      75 0.1136E-05
      76 0.9377E-06
      76 0.9377E-06
ComputeChange: NS (ITER=1) (NRM,RELC): ( 0.12002174E-04 0.28748201     ) :: nonlinear elasticity
ElasticSolve: Computing postprocessing fields
ElasticSolve: Stress Component 11
       1 0.3966E-01
       2 0.4130E-02
       3 0.9446E-03
       4 0.3417E-03
       5 0.1155E-03
       6 0.3655E-04
       7 0.1189E-04
       8 0.4054E-05
       9 0.1689E-05
      10 0.7096E-06
      10 0.7096E-06
ComputeStressAndStrain: Solution Norm:  6.9575842
ElasticSolve: Stress Component 22
       1 0.1358E+00
       2 0.1587E-01
       3 0.2198E-02
       4 0.5858E-03
       5 0.2029E-03
       6 0.7340E-04
       7 0.2695E-04
       8 0.9822E-05
       9 0.4036E-05
      10 0.1718E-05
      11 0.6123E-06
      11 0.6123E-06
ComputeStressAndStrain: Solution Norm:  5.0814327
ElasticSolve: Stress Component 33
       1 0.1812E-01
       2 0.2079E-02
       3 0.5853E-03
       4 0.2332E-03
       5 0.7613E-04
       6 0.2337E-04
       7 0.7182E-05
       8 0.2568E-05
       9 0.1081E-05
      10 0.4031E-06
      10 0.4031E-06
ComputeStressAndStrain: Solution Norm:  13.125698
ElasticSolve: Stress Component 12
       1 0.3836E-01
       2 0.9736E-02
       3 0.2402E-02
       4 0.6421E-03
       5 0.1246E-03
       6 0.4347E-04
       7 0.1935E-04
       8 0.1089E-04
       9 0.6498E-05
      10 0.4315E-05
      11 0.3083E-05
      12 0.2168E-05
      13 0.1543E-05
      14 0.9186E-06
      14 0.9186E-06
ComputeStressAndStrain: Solution Norm: 0.19775775E-11
ElasticSolve: Stress Component 23
       1 0.2801E-01
       2 0.4269E-02
       3 0.1060E-02
       4 0.2460E-03
       5 0.5135E-04
       6 0.9882E-05
       7 0.1845E-05
       8 0.4489E-06
       8 0.4489E-06
ComputeStressAndStrain: Solution Norm:  2.1915706
ElasticSolve: Stress Component 13
       1 0.1451E+00
       2 0.1154E-01
       3 0.1494E-02
       4 0.3799E-03
       5 0.1742E-03
       6 0.6496E-04
       7 0.2351E-04
       8 0.9684E-05
       9 0.3521E-05
      10 0.1653E-05
      11 0.1045E-05
      12 0.7275E-06
      12 0.7275E-06
ComputeStressAndStrain: Solution Norm: 0.73279723E-12
ElasticSolve: Displacing the mesh with computed displacement field
ElasticSolver: All done
ElasticSolver: ------------------------------------------
SingleSolver: Attempting to call solver
SingleSolver: Solver Equation string is: internalvtuoutputsolver
ResultOutputSolver: -------------------------------------
ResultOutputSolver: Dimension of mesh: 3
ResultOutputSolver: Saving in unstructured VTK XML (.vtu) format
WriteVtuFile: Writing body and BC indexes
ResultOutputSolver: -------------------------------------
 SolverModule:UpdateDisplacements: Reporting displacements to the fluid solver
 SolverModule:Run: runs =            1
 SolverModule:Run: CurrentModel%GetTestLoads =  F
 SolverModule:Run: CurrentModel%UDFUsed =  T
ElmerFoamDriver:Run: Converged at time(0.016)
ElmerFoamDriver:Run: System timestep 9 @ Time = 0.016
ElmerFoamDriver:Run: Transferring displacements from structures to fluids @ time(0.016)
ElmerFoamDriver:TransferDisplacementsToFluid: Solid displacements for node 0: 
-8.3582e-102 -6.21959e-06 3.66228e-07
ElmerFoamDriver:TransferDisplacementsToFluid: Fluid displacements for node 0: 
-8.3582e-102 -6.21959e-06 3.66228e-07
ElmerFoamDriver:Run: Stepping fluids to time(0.018)
FsiFoam:StepFluid: Stepping fluid solver...
FsiFoam:StepFluid: Time = 0.008
FsiFoam:ReadFSIControl: Selecting coupling scheme Aitken
FsiFoam:ReadFSIControl: outerCorrTolerance = 0.0001
FsiFoam:ReadFSIControl: FSI IS ENABLED.
FsiFoam:StepFluidNonItr: outerCorr = 1
FsiFoam:StepFluidNonItr: Time = 0.009, iteration: 1
FsiFoam:UpdateFSISurface: Reporting solid displacements to the fluid solver
FsiFoam:StepFluidNonItr: Maximal accumulated displacement of interface points: 0.00297605
FsiFoam:StepFluidNonItr: Moving only interface...Compensating for mesh movment !
FsiFoam:StepFluidNonItr: Courant Number mean: 1.03808e-07 max: 0.000890064 velocity magnitude: 0.00802244
DILUPBiCG:  Solving for Uy, Initial residual = 0.301977, Final residual = 3.9699e-12, No Iterations 2
DILUPBiCG:  Solving for Uz, Initial residual = 0.341636, Final residual = 8.17712e-07, No Iterations 1
GAMG:  Solving for p, Initial residual = 0.569699, Final residual = 0.382134, No Iterations 1000
GAMG:  Solving for p, Initial residual = 0.385802, Final residual = 0.408512, No Iterations 1000
FsiFoam:StepFluidNonItr: time step continuity errors : sum local = 6.86389e-19, global = -6.27921e-20, cumulative = -1.14578e-18
GAMG:  Solving for p, Initial residual = 0.399892, Final residual = 0.402348, No Iterations 1000
GAMG:  Solving for p, Initial residual = 0.405996, Final residual = 0.417422, No Iterations 1000
FsiFoam:StepFluidNonItr: time step continuity errors : sum local = 6.93974e-19, global = -5.61665e-20, cumulative = -1.20195e-18
FsiFoam:StepFluid: ExecutionTime = 15.78 s  ClockTime = 16 s
FsiFoam:UpdateFSISurface: Reporting surface loads to the solid solver 
ElmerFoamDriver:TransferLoadsToStructures: Transfering loads to the structures solver.
ElmerFoamDriver:Run: Stepping structures to time(0.018)
 MyTimeModule:MyTimeStepper: Timesteps(interval) =            0
 MyTimeModule:MyTimeStepper: Timesteps(interval) =            1
MAIN: 
MAIN: -------------------------------------
MAIN:  Time: 1/9   9.0000000000000011E-003
MAIN: -------------------------------------
MAIN: 
 MyTimeModule:UpdateLoads: Updating loads on the structure
 MyTimeModule:UpdateLoads: Time Step Summary 
     sTime(1)     =    9.0000000000000011E-003
     PreviousTime =    1.6000000000000000E-002
     FinalTime    =    1.8000000000000002E-002
 MyTimeModule:UpdateLoads: Finishing
 MyTimeModule:MyTimeStepper: Calling SolveEquations
    Transient =  T
SingleSolver: Attempting to call solver
SingleSolver: Solver Equation string is: nonlinear elasticity
ElasticSolve: 
ElasticSolve: 
ElasticSolve: -------------------------------------
ElasticSolve:  ELASTICITY ITERATION              1
ElasticSolve: -------------------------------------
ElasticSolve: 
ElasticSolve: Starting assembly...
DefUtils::DefaultDirichletBCs: Setting Dirichlet boundary conditions
DefUtils::DefaultDirichletBCs: Dirichlet boundary conditions set
       1 0.7544E-01
       2 0.1137E+00
       3 0.3416E-01
       4 0.2822E-01
       5 0.1259E-01
       6 0.6885E-02
       7 0.3715E-02
       8 0.3094E-02
       9 0.2652E-02
      10 0.2416E-02
      11 0.2101E-02
      12 0.1824E-02
      13 0.1569E-02
      14 0.1374E-02
      15 0.1242E-02
      16 0.1161E-02
      17 0.1078E-02
      18 0.9920E-03
      19 0.8922E-03
      20 0.8017E-03
      21 0.7155E-03
      22 0.6578E-03
      23 0.6166E-03
      24 0.5841E-03
      25 0.5481E-03
      26 0.5113E-03
      27 0.4742E-03
      28 0.4372E-03
      29 0.4011E-03
      30 0.3733E-03
      31 0.3454E-03
      32 0.3185E-03
      33 0.2889E-03
      34 0.2598E-03
      35 0.2351E-03
      36 0.2160E-03
      37 0.2031E-03
      38 0.1942E-03
      39 0.1861E-03
      40 0.1785E-03
      41 0.1714E-03
      42 0.1641E-03
      43 0.1584E-03
      44 0.1381E-03
      45 0.1284E-03
      46 0.1264E-03
      47 0.1028E-03
      48 0.8323E-04
      49 0.7153E-04
      50 0.5803E-04
      51 0.4890E-04
      52 0.4866E-04
      53 0.8142E-04
      54 0.3195E-04
      55 0.2847E-04
      56 0.1823E-04
      57 0.1850E-04
      58 0.1631E-04
      59 0.1900E-04
      60 0.8758E-05
      61 0.7380E-05
      62 0.5525E-05
      63 0.4444E-05
      64 0.4435E-05
      65 0.3771E-05
      66 0.3717E-05
      67 0.3694E-05
      68 0.3627E-05
      69 0.3295E-05
      70 0.2481E-05
      71 0.2489E-05
      72 0.2342E-05
      73 0.2105E-05
      74 0.1731E-05
      75 0.1601E-05
      76 0.1791E-05
      77 0.3762E-06
      77 0.3762E-06
ComputeChange: NS (ITER=1) (NRM,RELC): ( 0.15416287E-04 0.24903758     ) :: nonlinear elasticity
ElasticSolve: Computing postprocessing fields
ElasticSolve: Stress Component 11
       1 0.3942E-01
       2 0.3948E-02
       3 0.8389E-03
       4 0.3209E-03
       5 0.1142E-03
       6 0.3809E-04
       7 0.1289E-04
       8 0.4161E-05
       9 0.1680E-05
      10 0.7091E-06
      10 0.7091E-06
ComputeStressAndStrain: Solution Norm:  8.2226086
ElasticSolve: Stress Component 22
       1 0.1347E+00
       2 0.1463E-01
       3 0.2119E-02
       4 0.5925E-03
       5 0.2093E-03
       6 0.7476E-04
       7 0.2680E-04
       8 0.9503E-05
       9 0.3907E-05
      10 0.1711E-05
      11 0.6120E-06
      11 0.6120E-06
ComputeStressAndStrain: Solution Norm:  5.8722904
ElasticSolve: Stress Component 33
       1 0.1712E-01
       2 0.1798E-02
       3 0.5347E-03
       4 0.2121E-03
       5 0.7325E-04
       6 0.2263E-04
       7 0.6810E-05
       8 0.2416E-05
       9 0.1012E-05
      10 0.3768E-06
      10 0.3768E-06
ComputeStressAndStrain: Solution Norm:  15.638897
ElasticSolve: Stress Component 12
       1 0.1285E+00
       2 0.2641E-01
       3 0.7852E-02
       4 0.2891E-02
       5 0.1117E-02
       6 0.4563E-03
       7 0.1734E-03
       8 0.5926E-04
       9 0.2250E-04
      10 0.1094E-04
      11 0.6089E-05
      12 0.4191E-05
      13 0.3215E-05
      14 0.2425E-05
      15 0.1831E-05
      16 0.1271E-05
      17 0.7896E-06
      17 0.7896E-06
ComputeStressAndStrain: Solution Norm: 0.28874624E-11
ElasticSolve: Stress Component 23
       1 0.2903E-01
       2 0.4411E-02
       3 0.1099E-02
       4 0.2408E-03
       5 0.4902E-04
       6 0.9634E-05
       7 0.1847E-05
       8 0.4442E-06
       8 0.4442E-06
ComputeStressAndStrain: Solution Norm:  2.4375377
ElasticSolve: Stress Component 13
       1 0.6618E-01
       2 0.7387E-02
       3 0.2161E-02
       4 0.7076E-03
       5 0.1806E-03
       6 0.4775E-04
       7 0.1375E-04
       8 0.4699E-05
       9 0.2113E-05
      10 0.1077E-05
      11 0.6109E-06
      11 0.6109E-06
ComputeStressAndStrain: Solution Norm: 0.42015777E-11
ElasticSolve: Displacing the mesh with computed displacement field
ElasticSolver: All done
ElasticSolver: ------------------------------------------
SingleSolver: Attempting to call solver
SingleSolver: Solver Equation string is: internalvtuoutputsolver
ResultOutputSolver: -------------------------------------
ResultOutputSolver: Dimension of mesh: 3
ResultOutputSolver: Saving in unstructured VTK XML (.vtu) format
WriteVtuFile: Writing body and BC indexes
ResultOutputSolver: -------------------------------------
 SolverModule:UpdateDisplacements: Reporting displacements to the fluid solver
 SolverModule:Run: runs =            1
 SolverModule:Run: CurrentModel%GetTestLoads =  F
 SolverModule:Run: CurrentModel%UDFUsed =  T
ElmerFoamDriver:Run: Converged at time(0.018)
ElmerFoamDriver:Run: System timestep 10 @ Time = 0.018
ElmerFoamDriver:Run: Transferring displacements from structures to fluids @ time(0.018)
ElmerFoamDriver:TransferDisplacementsToFluid: Solid displacements for node 0: 
-2.34871e-113 -7.71597e-06 3.31771e-07
ElmerFoamDriver:TransferDisplacementsToFluid: Fluid displacements for node 0: 
-2.34871e-113 -7.71597e-06 3.31771e-07
ElmerFoamDriver:Run: Stepping fluids to time(0.02)
FsiFoam:StepFluid: Stepping fluid solver...
FsiFoam:StepFluid: Time = 0.009
FsiFoam:ReadFSIControl: Selecting coupling scheme Aitken
FsiFoam:ReadFSIControl: outerCorrTolerance = 0.0001
FsiFoam:ReadFSIControl: FSI IS ENABLED.
FsiFoam:StepFluidNonItr: outerCorr = 1
FsiFoam:StepFluidNonItr: Time = 0.01, iteration: 1
FsiFoam:UpdateFSISurface: Reporting solid displacements to the fluid solver
FsiFoam:StepFluidNonItr: Maximal accumulated displacement of interface points: 0.00389238
FsiFoam:StepFluidNonItr: Moving only interface...Compensating for mesh movment !
FsiFoam:StepFluidNonItr: Courant Number mean: 1.06598e-07 max: 0.00100679 velocity magnitude: 0.00907853
DILUPBiCG:  Solving for Uy, Initial residual = 0.2824, Final residual = 3.67539e-12, No Iterations 2
DILUPBiCG:  Solving for Uz, Initial residual = 0.202712, Final residual = 7.28374e-07, No Iterations 1
[...]
      30 0.1203E-03
      31 0.1086E-03
      32 0.9763E-04
      33 0.8744E-04
      34 0.7843E-04
      35 0.6957E-04
      36 0.6255E-04
      37 0.5636E-04
      38 0.5148E-04
      39 0.4706E-04
      40 0.4281E-04
      41 0.3883E-04
      42 0.3465E-04
      43 0.3089E-04
      44 0.2703E-04
      45 0.2397E-04
      46 0.2124E-04
      47 0.1875E-04
      48 0.1563E-04
      49 0.1596E-04
      50 0.1075E-04
      51 0.9034E-05
      52 0.7646E-05
      53 0.7546E-05
      54 0.6231E-05
      55 0.4162E-05
      56 0.3516E-05
      57 0.3309E-05
      58 0.3095E-05
      59 0.2507E-05
      60 0.2398E-05
      61 0.1789E-05
      62 0.1749E-05
      63 0.1840E-05
      64 0.1605E-05
      65 0.1220E-05
      66 0.1594E-05
      67 0.8733E-06
      67 0.8733E-06
ComputeChange: NS (ITER=1) (NRM,RELC): ( 0.12948902E-03 0.73655272E-01 ) :: nonlinear elasticity
ElasticSolve: Computing postprocessing fields
ElasticSolve: Stress Component 11
       1 0.3035E-01
       2 0.2188E-02
       3 0.5157E-03
       4 0.1808E-03
       5 0.6544E-04
       6 0.1788E-04
       7 0.4900E-05
       8 0.1477E-05
       9 0.5643E-06
       9 0.5643E-06
ComputeStressAndStrain: Solution Norm:  28.161898
ElasticSolve: Stress Component 22
       1 0.1337E+00
       2 0.9532E-02
       3 0.2215E-02
       4 0.7212E-03
       5 0.2298E-03
       6 0.7320E-04
       7 0.2646E-04
       8 0.8773E-05
       9 0.3389E-05
      10 0.1538E-05
      11 0.5678E-06
      11 0.5678E-06
ComputeStressAndStrain: Solution Norm:  17.420302
ElasticSolve: Stress Component 33
       1 0.1348E-01
       2 0.1071E-02
       3 0.3143E-03
       4 0.1150E-03
       5 0.3807E-04
       6 0.1201E-04
       7 0.3432E-05
       8 0.1133E-05
       9 0.4382E-06
       9 0.4382E-06
ComputeStressAndStrain: Solution Norm:  56.192761
ElasticSolve: Stress Component 12
       1 0.4064E-01
       2 0.8330E-02
       3 0.1523E-02
       4 0.5696E-03
       5 0.2233E-03
       6 0.8564E-04
       7 0.2839E-04
       8 0.9695E-05
       9 0.5171E-05
      10 0.2594E-05
      11 0.1685E-05
      12 0.1174E-05
      13 0.8288E-06
      13 0.8288E-06
ComputeStressAndStrain: Solution Norm: 0.43147233E-10
ElasticSolve: Stress Component 23
       1 0.5910E-01
       2 0.7027E-02
       3 0.1605E-02
       4 0.4420E-03
       5 0.1018E-03
       6 0.2280E-04
       7 0.4589E-05
       8 0.9908E-06
       8 0.9908E-06
ComputeStressAndStrain: Solution Norm:  4.4315579
ElasticSolve: Stress Component 13
       1 0.1005E+00
       2 0.1092E-01
       3 0.2026E-02
       4 0.6159E-03
       5 0.2053E-03
       6 0.6966E-04
       7 0.2270E-04
       8 0.7462E-05
       9 0.2571E-05
      10 0.1275E-05
      11 0.6097E-06
      11 0.6097E-06
ComputeStressAndStrain: Solution Norm: 0.35454170E-10
ElasticSolve: Displacing the mesh with computed displacement field
ElasticSolver: All done
ElasticSolver: ------------------------------------------
SingleSolver: Attempting to call solver
SingleSolver: Solver Equation string is: internalvtuoutputsolver
ResultOutputSolver: -------------------------------------
ResultOutputSolver: Dimension of mesh: 3
ResultOutputSolver: Saving in unstructured VTK XML (.vtu) format
WriteVtuFile: Writing body and BC indexes
ResultOutputSolver: -------------------------------------
 SolverModule:UpdateDisplacements: Reporting displacements to the fluid solver
 SolverModule:Run: runs =            1
 SolverModule:Run: CurrentModel%GetTestLoads =  F
 SolverModule:Run: CurrentModel%UDFUsed =  T
ElmerFoamDriver:Run: Converged at time(0.052)
ElmerFoamDriver:Run: System timestep 27 @ Time = 0.052
ElmerFoamDriver:Run: Transferring displacements from structures to fluids @ time(0.052)
ElmerFoamDriver:TransferDisplacementsToFluid: Solid displacements for node 0: 
1.46447e-274 -3.11589e-05 -2.045e-06
ElmerFoamDriver:TransferDisplacementsToFluid: Fluid displacements for node 0: 
1.46447e-274 -3.11589e-05 -2.045e-06
ElmerFoamDriver:Run: Stepping fluids to time(0.054)
FsiFoam:StepFluid: Stepping fluid solver...
FsiFoam:StepFluid: Time = 0.026
FsiFoam:ReadFSIControl: Selecting coupling scheme Aitken
FsiFoam:ReadFSIControl: outerCorrTolerance = 0.0001
FsiFoam:ReadFSIControl: FSI IS ENABLED.
FsiFoam:StepFluidNonItr: outerCorr = 1
FsiFoam:StepFluidNonItr: Time = 0.027, iteration: 1
FsiFoam:UpdateFSISurface: Reporting solid displacements to the fluid solver
FsiFoam:StepFluidNonItr: Maximal accumulated displacement of interface points: 0.00340439
FsiFoam:StepFluidNonItr: Moving only interface...Compensating for mesh movment !
FsiFoam:StepFluidNonItr: Courant Number mean: 0.000139166 max: 0.00332913 velocity magnitude: 0.034755
DILUPBiCG:  Solving for Uy, Initial residual = 0.186974, Final residual = 8.16358e-07, No Iterations 1
DILUPBiCG:  Solving for Uz, Initial residual = 0.22295, Final residual = 7.04498e-07, No Iterations 1
GAMG:  Solving for p, Initial residual = 0.571285, Final residual = 0.257997, No Iterations 1000
GAMG:  Solving for p, Initial residual = 0.285933, Final residual = 0.307432, No Iterations 1000
FsiFoam:StepFluidNonItr: time step continuity errors : sum local = 7.23183e-19, global = -1.9271e-20, cumulative = -3.116e-18
GAMG:  Solving for p, Initial residual = 0.284601, Final residual = 0.257421, No Iterations 1000
GAMG:  Solving for p, Initial residual = 0.27735, Final residual = 0.272189, No Iterations 1000
FsiFoam:StepFluidNonItr: time step continuity errors : sum local = 7.09654e-19, global = -5.31457e-20, cumulative = -3.16915e-18
FsiFoam:StepFluid: ExecutionTime = 48.31 s  ClockTime = 49 s
FsiFoam:UpdateFSISurface: Reporting surface loads to the solid solver 
ElmerFoamDriver:TransferLoadsToStructures: Transfering loads to the structures solver.
ElmerFoamDriver:Run: Stepping structures to time(0.054)
 MyTimeModule:MyTimeStepper: Timesteps(interval) =            0
 MyTimeModule:MyTimeStepper: Timesteps(interval) =            1
MAIN: 
MAIN: -------------------------------------
MAIN:  Time: 1/27   2.7000000000000017E-002
MAIN: -------------------------------------
MAIN: 
 MyTimeModule:UpdateLoads: Updating loads on the structure
 MyTimeModule:UpdateLoads: Time Step Summary 
     sTime(1)     =    2.7000000000000017E-002
     PreviousTime =    5.2000000000000032E-002
     FinalTime    =    5.4000000000000034E-002
 MyTimeModule:UpdateLoads: Finishing
 MyTimeModule:MyTimeStepper: Calling SolveEquations
    Transient =  T
SingleSolver: Attempting to call solver
SingleSolver: Solver Equation string is: nonlinear elasticity
ElasticSolve: 
ElasticSolve: 
ElasticSolve: -------------------------------------
ElasticSolve:  ELASTICITY ITERATION              1
ElasticSolve: -------------------------------------
ElasticSolve: 
ElasticSolve: Starting assembly...
DefUtils::DefaultDirichletBCs: Setting Dirichlet boundary conditions
DefUtils::DefaultDirichletBCs: Dirichlet boundary conditions set
       1 0.2690E-01
       2 0.3012E-01
       3 0.1306E-01
       4 0.1101E-01
       5 0.6593E-02
       6 0.3629E-02
       7 0.1960E-02
       8 0.1388E-02
       9 0.1203E-02
      10 0.9950E-03
      11 0.8719E-03
      12 0.7253E-03
      13 0.6437E-03
      14 0.5679E-03
      15 0.5020E-03
      16 0.4479E-03
      17 0.4109E-03
      18 0.3715E-03
      19 0.3350E-03
      20 0.2979E-03
      21 0.2579E-03
      22 0.2309E-03
      23 0.2071E-03
      24 0.1910E-03
      25 0.1750E-03
      26 0.1597E-03
      27 0.1424E-03
      28 0.1260E-03
      29 0.1108E-03
      30 0.9824E-04
      31 0.8827E-04
      32 0.7924E-04
      33 0.7098E-04
      34 0.6362E-04
      35 0.5634E-04
      36 0.5054E-04
      37 0.4524E-04
      38 0.4093E-04
      39 0.3697E-04
      40 0.3322E-04
      41 0.2973E-04
      42 0.2633E-04
      43 0.2329E-04
      44 0.2046E-04
      45 0.1811E-04
      46 0.1613E-04
      47 0.1447E-04
      48 0.1323E-04
      49 0.1221E-04
      50 0.1118E-04
      51 0.1020E-04
      52 0.8960E-05
      53 0.9322E-05
      54 0.8084E-05
      55 0.7241E-05
      56 0.6408E-05
      57 0.4686E-05
      58 0.3795E-05
      59 0.1997E-05
      60 0.1173E-05
      61 0.1096E-05
      62 0.1011E-05
      63 0.1124E-05
      64 0.8153E-06
      64 0.8153E-06
ComputeChange: NS (ITER=1) (NRM,RELC): ( 0.13888716E-03 0.70037076E-01 ) :: nonlinear elasticity
ElasticSolve: Computing postprocessing fields
ElasticSolve: Stress Component 11
       1 0.3026E-01
       2 0.2117E-02
       3 0.5080E-03
       4 0.1814E-03
       5 0.6677E-04
       6 0.1814E-04
       7 0.4933E-05
       8 0.1424E-05
       9 0.5232E-06
       9 0.5232E-06
ComputeStressAndStrain: Solution Norm:  30.172483
ElasticSolve: Stress Component 22
       1 0.1334E+00
       2 0.9406E-02
       3 0.2227E-02
       4 0.7337E-03
       5 0.2344E-03
       6 0.7389E-04
       7 0.2626E-04
       8 0.8646E-05
       9 0.3331E-05
      10 0.1510E-05
      11 0.5599E-06
      11 0.5599E-06
ComputeStressAndStrain: Solution Norm:  18.640368
ElasticSolve: Stress Component 33
       1 0.1338E-01
       2 0.1037E-02
       3 0.3111E-03
       4 0.1132E-03
       5 0.3728E-04
       6 0.1158E-04
       7 0.3251E-05
       8 0.1118E-05
       9 0.4492E-06
       9 0.4492E-06
ComputeStressAndStrain: Solution Norm:  60.214035
ElasticSolve: Stress Component 12
       1 0.1198E-01
       2 0.1461E-02
       3 0.3558E-03
       4 0.1526E-03
       5 0.3652E-04
       6 0.1322E-04
       7 0.6844E-05
       8 0.4491E-05
       9 0.2681E-05
      10 0.1709E-05
      11 0.1190E-05
      12 0.7802E-06
      12 0.7802E-06
ComputeStressAndStrain: Solution Norm: 0.40582997E-10
ElasticSolve: Stress Component 23
       1 0.5923E-01
       2 0.6945E-02
       3 0.1571E-02
       4 0.4465E-03
       5 0.1047E-03
       6 0.2401E-04
       7 0.4888E-05
       8 0.1019E-05
       9 0.2110E-06
       9 0.2110E-06
ComputeStressAndStrain: Solution Norm:  4.7238727
ElasticSolve: Stress Component 13
       1 0.3135E-01
       2 0.4465E-02
       3 0.8635E-03
       4 0.3484E-03
       5 0.1436E-03
       6 0.4754E-04
       7 0.1548E-04
       8 0.4964E-05
       9 0.1469E-05
      10 0.8632E-06
      10 0.8632E-06
ComputeStressAndStrain: Solution Norm: 0.47574486E-11
ElasticSolve: Displacing the mesh with computed displacement field
ElasticSolver: All done
ElasticSolver: ------------------------------------------
SingleSolver: Attempting to call solver
SingleSolver: Solver Equation string is: internalvtuoutputsolver
ResultOutputSolver: -------------------------------------
ResultOutputSolver: Dimension of mesh: 3
ResultOutputSolver: Saving in unstructured VTK XML (.vtu) format
WriteVtuFile: Writing body and BC indexes
ResultOutputSolver: -------------------------------------
 SolverModule:UpdateDisplacements: Reporting displacements to the fluid solver
 SolverModule:Run: runs =            1
 SolverModule:Run: CurrentModel%GetTestLoads =  F
 SolverModule:Run: CurrentModel%UDFUsed =  T
ElmerFoamDriver:Run: Converged at time(0.054)
ElmerFoamDriver:Run: System timestep 28 @ Time = 0.054
ElmerFoamDriver:Run: Transferring displacements from structures to fluids @ time(0.054)
ElmerFoamDriver:TransferDisplacementsToFluid: Solid displacements for node 0: 
-7.95075e-278 -3.07956e-05 -1.77247e-06
ElmerFoamDriver:TransferDisplacementsToFluid: Fluid displacements for node 0: 
-7.95075e-278 -3.07956e-05 -1.77247e-06
ElmerFoamDriver:Run: Stepping fluids to time(0.056)
FsiFoam:StepFluid: Stepping fluid solver...
FsiFoam:StepFluid: Time = 0.027
FsiFoam:ReadFSIControl: Selecting coupling scheme Aitken
FsiFoam:ReadFSIControl: outerCorrTolerance = 0.0001
FsiFoam:ReadFSIControl: FSI IS ENABLED.
FsiFoam:StepFluidNonItr: outerCorr = 1
FsiFoam:StepFluidNonItr: Time = 0.028, iteration: 1
FsiFoam:UpdateFSISurface: Reporting solid displacements to the fluid solver
FsiFoam:StepFluidNonItr: Maximal accumulated displacement of interface points: 0.00675773
FsiFoam:StepFluidNonItr: Moving only interface...Compensating for mesh movment !
FsiFoam:StepFluidNonItr: Courant Number mean: 3.53658e-07 max: 0.00329725 velocity magnitude: 0.030278
DILUPBiCG:  Solving for Uy, Initial residual = 0.182413, Final residual = 7.42368e-07, No Iterations 1
DILUPBiCG:  Solving for Uz, Initial residual = 0.170385, Final residual = 5.99365e-07, No Iterations 1
GAMG:  Solving for p, Initial residual = 0.566094, Final residual = 0.283059, No Iterations 1000
GAMG:  Solving for p, Initial residual = 0.286735, Final residual = 0.303252, No Iterations 1000
FsiFoam:StepFluidNonItr: time step continuity errors : sum local = 7.34984e-19, global = -2.57444e-20, cumulative = -3.19489e-18
GAMG:  Solving for p, Initial residual = 0.300275, Final residual = 0.281484, No Iterations 1000
GAMG:  Solving for p, Initial residual = 0.284964, Final residual = 0.294365, No Iterations 1000
FsiFoam:StepFluidNonItr: time step continuity errors : sum local = 7.28818e-19, global = -4.12513e-20, cumulative = -3.23614e-18
FsiFoam:StepFluid: ExecutionTime = 50.06 s  ClockTime = 51 s
FsiFoam:UpdateFSISurface: Reporting surface loads to the solid solver 
ElmerFoamDriver:TransferLoadsToStructures: Transfering loads to the structures solver.
ElmerFoamDriver:Run: Stepping structures to time(0.056)
 MyTimeModule:MyTimeStepper: Timesteps(interval) =            0
 MyTimeModule:MyTimeStepper: Timesteps(interval) =            1
MAIN: 
MAIN: -------------------------------------
MAIN:  Time: 1/28   2.8000000000000018E-002
MAIN: -------------------------------------
MAIN: 
 MyTimeModule:UpdateLoads: Updating loads on the structure
 MyTimeModule:UpdateLoads: Time Step Summary 
     sTime(1)     =    2.8000000000000018E-002
     PreviousTime =    5.4000000000000034E-002
     FinalTime    =    5.6000000000000036E-002
 MyTimeModule:UpdateLoads: Finishing
 MyTimeModule:MyTimeStepper: Calling SolveEquations
    Transient =  T
SingleSolver: Attempting to call solver
SingleSolver: Solver Equation string is: nonlinear elasticity
ElasticSolve: 
ElasticSolve: 
ElasticSolve: -------------------------------------
ElasticSolve:  ELASTICITY ITERATION              1
ElasticSolve: -------------------------------------
ElasticSolve: 
ElasticSolve: Starting assembly...
DefUtils::DefaultDirichletBCs: Setting Dirichlet boundary conditions
DefUtils::DefaultDirichletBCs: Dirichlet boundary conditions set
       1 0.2465E-01
       2 0.3030E-01
       3 0.1195E-01
       4 0.9895E-02
       5 0.5840E-02
       6 0.3151E-02
       7 0.1670E-02
       8 0.1209E-02
       9 0.1048E-02
      10 0.8691E-03
      11 0.7546E-03
      12 0.6153E-03
      13 0.5316E-03
      14 0.4738E-03
      15 0.4234E-03
      16 0.3849E-03
      17 0.3562E-03
      18 0.3233E-03
      19 0.2929E-03
      20 0.2598E-03
      21 0.2270E-03
      22 0.2035E-03
      23 0.1843E-03
      24 0.1709E-03
      25 0.1572E-03
      26 0.1441E-03
      27 0.1281E-03
      28 0.1131E-03
      29 0.9822E-04
      30 0.8636E-04
      31 0.7716E-04
      32 0.6879E-04
      33 0.6154E-04
      34 0.5500E-04
      35 0.4873E-04
      36 0.4375E-04
      37 0.3919E-04
      38 0.3560E-04
      39 0.3213E-04
      40 0.2893E-04
      41 0.2586E-04
      42 0.2303E-04
      43 0.2057E-04
      44 0.1836E-04
      45 0.1672E-04
      46 0.1525E-04
      47 0.1413E-04
      48 0.1324E-04
      49 0.1248E-04
      50 0.1184E-04
      51 0.1127E-04
      52 0.1078E-04
      53 0.1034E-04
      54 0.9829E-05
      55 0.9257E-05
      56 0.5829E-05
      57 0.4792E-05
      58 0.5153E-05
      59 0.4287E-05
      60 0.3783E-05
      61 0.2963E-05
      62 0.1930E-05
      63 0.1751E-05
      64 0.1395E-05
      65 0.1491E-05
      66 0.1023E-05
      67 0.9717E-06
      67 0.9717E-06
ComputeChange: NS (ITER=1) (NRM,RELC): ( 0.14847310E-03 0.66717234E-01 ) :: nonlinear elasticity
ElasticSolve: Computing postprocessing fields
ElasticSolve: Stress Component 11
       1 0.3021E-01
       2 0.2221E-02
       3 0.5099E-03
       4 0.1745E-03
       5 0.6207E-04
       6 0.1701E-04
       7 0.4669E-05
       8 0.1348E-05
       9 0.4966E-06
       9 0.4966E-06
ComputeStressAndStrain: Solution Norm:  32.234128
ElasticSolve: Stress Component 22
       1 0.1332E+00
       2 0.9291E-02
       3 0.2228E-02
       4 0.7410E-03
       5 0.2376E-03
       6 0.7423E-04
       7 0.2581E-04
       8 0.8390E-05
       9 0.3218E-05
      10 0.1447E-05
      11 0.5408E-06
      11 0.5408E-06
ComputeStressAndStrain: Solution Norm:  19.887877
ElasticSolve: Stress Component 33
       1 0.1322E-01
       2 0.9036E-03
       3 0.2917E-03
       4 0.1091E-03
       5 0.3920E-04
       6 0.1217E-04
       7 0.3303E-05
       8 0.9919E-06
       8 0.9919E-06
ComputeStressAndStrain: Solution Norm:  64.339336
ElasticSolve: Stress Component 12
       1 0.1304E-01
       2 0.1631E-02
       3 0.3878E-03
       4 0.1636E-03
       5 0.4179E-04
       6 0.1170E-04
       7 0.4668E-05
       8 0.2562E-05
       9 0.1313E-05
      10 0.7949E-06
      10 0.7949E-06
ComputeStressAndStrain: Solution Norm: 0.46938009E-10
ElasticSolve: Stress Component 23
       1 0.5940E-01
       2 0.6875E-02
       3 0.1540E-02
       4 0.4435E-03
       5 0.1045E-03
       6 0.2464E-04
       7 0.5094E-05
       8 0.1059E-05
       9 0.2130E-06
       9 0.2130E-06
ComputeStressAndStrain: Solution Norm:  5.0178119
ElasticSolve: Stress Component 13
       1 0.2584E-01
       2 0.3227E-02
       3 0.5886E-03
       4 0.2241E-03
       5 0.8264E-04
       6 0.2533E-04
       7 0.8700E-05
       8 0.3329E-05
       9 0.1682E-05
      10 0.1109E-05
      11 0.7913E-06
      11 0.7913E-06
ComputeStressAndStrain: Solution Norm: 0.62974397E-11
ElasticSolve: Displacing the mesh with computed displacement field
ElasticSolver: All done
ElasticSolver: ------------------------------------------
SingleSolver: Attempting to call solver
SingleSolver: Solver Equation string is: internalvtuoutputsolver
ResultOutputSolver: -------------------------------------
ResultOutputSolver: Dimension of mesh: 3
ResultOutputSolver: Saving in unstructured VTK XML (.vtu) format
WriteVtuFile: Writing body and BC indexes
ResultOutputSolver: -------------------------------------
 SolverModule:UpdateDisplacements: Reporting displacements to the fluid solver
 SolverModule:Run: runs =            1
 SolverModule:Run: CurrentModel%GetTestLoads =  F
 SolverModule:Run: CurrentModel%UDFUsed =  T
ElmerFoamDriver:Run: Converged at time(0.056)
ElmerFoamDriver:Run: System timestep 29 @ Time = 0.056
ElmerFoamDriver:Run: Transferring displacements from structures to fluids @ time(0.056)
ElmerFoamDriver:TransferDisplacementsToFluid: Solid displacements for node 0: 
-1.72672e-288 -3.07232e-05 -1.62925e-06
ElmerFoamDriver:TransferDisplacementsToFluid: Fluid displacements for node 0: 
-1.72672e-288 -3.07232e-05 -1.62925e-06
ElmerFoamDriver:Run: Stepping fluids to time(0.058)
FsiFoam:StepFluid: Stepping fluid solver...
FsiFoam:StepFluid: Time = 0.028
FsiFoam:ReadFSIControl: Selecting coupling scheme Aitken
FsiFoam:ReadFSIControl: outerCorrTolerance = 0.0001
FsiFoam:ReadFSIControl: FSI IS ENABLED.
FsiFoam:StepFluidNonItr: outerCorr = 1
FsiFoam:StepFluidNonItr: Time = 0.029, iteration: 1
FsiFoam:UpdateFSISurface: Reporting solid displacements to the fluid solver
FsiFoam:StepFluidNonItr: Maximal accumulated displacement of interface points: 0.0100921
FsiFoam:StepFluidNonItr: Moving the whole mesh...FsiFoam:StepFluidNonItr: runTime.deltaT()  = 0.001
DICPCG:  Solving for motionUy, Initial residual = 0.0396073, Final residual = 3.30714e-05, No Iterations 71
DICPCG:  Solving for motionUz, Initial residual = 0.0686766, Final residual = 6.68469e-05, No Iterations 55
Compensating for mesh movment !
FsiFoam:StepFluidNonItr: Courant Number mean: 0.00047559 max: 0.00589444 velocity magnitude: 0.106422
DILUPBiCG:  Solving for Uy, Initial residual = 0.169223, Final residual = 7.22421e-07, No Iterations 1
DILUPBiCG:  Solving for Uz, Initial residual = 0.159609, Final residual = 5.90319e-07, No Iterations 1
GAMG:  Solving for p, Initial residual = 0.566334, Final residual = 0.25438, No Iterations 1000
