Header
  CHECK KEYWORDS Warn
  Mesh DB "." "."
  Include Path ""
  Results Directory ""
End

Simulation
  Max Output Level = 5
  Coordinate System = Cartesian
  Coordinate Mapping(3) = 1 2 3
!  Simulation Type = Steady state
!  Steady State Max Iterations = 1
  Simulation Type = Transient
  Timestep intervals = 100
!  Timestep intervals = 10
  Timestep Sizes = 0.001
  Output Intervals = 1
  Timestepping Method = BDF
  BDF Order = 2
  Solver Input File = case.sif
  Post File = case.vtu
End

Constants
  Gravity(4) = 0 -1 0 9.82
  Stefan Boltzmann = 5.67e-08
  Permittivity of Vacuum = 8.8542e-12
  Boltzmann Constant = 1.3807e-23
  Unit Charge = 1.602e-19
End

Body 1
  Target Bodies(1) = 1
  Name = "Body 1"
  Equation = 1
  Material = 1
End

!Solver 1
!  Exec Solver = Always
!  Equation = Nonlinear elasticity
!  Variable = Displacement
!  Variable Dofs = 3
!  Procedure = "ElasticSolve" "ElasticSolver"
!  Nonlinear System Convergence Tolerance = 1.0e-4
!  Nonlinear System Max Iterations = 1
!  Nonlinear System Newton After Iterations = 3
!  Nonlinear System Newton After Tolerance = 1.0e-2
!  Nonlinear System Relaxation Factor = 1.0
!  Linear System Solver = Iterative
!  Linear System Iterative Method = BiCGStab
!  Linear System Max Iterations = 1000
!  Linear System Convergence Tolerance = 1.0e-6
!  Linear System Abort Not Converged = True
!  Linear System Residual Output = 1
!  Steady State Convergence Tolerance = 1.0e-5
!  Linear System Preconditioning = Diagonal
!  Time Derivative Order = 2
!End

Solver 1
  Equation = Linear elasticity
  Procedure = "StressSolve" "StressSolver"
  Variable = -dofs 3 Displacement
  Exec Solver = Always
  Stabilize = True
  Bubbles = False
  Lumped Mass Matrix = False
  Optimize Bandwidth = True
  Steady State Convergence Tolerance = 1.0e-5
  Nonlinear System Convergence Tolerance = 1.0e-7
  Nonlinear System Max Iterations = 1
  Nonlinear System Newton After Iterations = 3
  Nonlinear System Newton After Tolerance = 1.0e-3
  Nonlinear System Relaxation Factor = 1
  Linear System Solver = Iterative
  Linear System Iterative Method = GCR
  Linear System Max Iterations = 500
  Linear System Convergence Tolerance = 1.0e-10
  Linear System Preconditioning = ILU1
  Linear System ILUT Tolerance = 1.0e-3
  Linear System Abort Not Converged = False
  Linear System Residual Output = 1
  Linear System Precondition Recompute = 1
End

Equation 1
  Name = "Elasticity"
  Calculate Stresses = True
  Active Solvers(1) = 1
End

Material 1
  Name = "MyMat"
  Youngs modulus = 1.4e6
  Density = 10
  Poisson ratio = 0.4
End

Boundary Condition 1
  Target Boundaries(1) = 5 
  Name = "Wall"
  Displacement 3 = 0
  Displacement 2 = 0
  Displacement 1 = 0
End

Boundary Condition 2
  Fsi BC = True
  Target Boundaries(1) = 3 
  Name = "FSI"
!  Force 2 = -4.0e5
  Force 3 = Variable Time
    Real Procedure "LoadFunctionLibrary" "LoadZDirection"
End

Boundary Condition 3
  Target Boundaries(1) = 1
  Name = "bottomSymm"
  !Displacement 3 = 0
  Displacement 2 = 0
  !Displacement 1 = 0
End

Boundary Condition 4
  Target Boundaries(1) = 4
  Name = "frontSymm"
  !Displacement 3 = 0
  !Displacement 2 = 0
  Displacement 1 = 0
End

Boundary Condition 5
  Target Boundaries(1) = 2
  Name = "frontSymm"
  !Displacement 3 = 0
  !Displacement 2 = 0
  Displacement 1 = 0
End
